version 2
run General-0-20241221-21:09:20-24280
attr configname General
attr datetime 20241221-21:09:20
attr experiment General
attr inifile omnetpp.ini
attr iterationvars ""
attr iterationvarsf ""
attr measurement ""
attr network CampusNetwork
attr processid 24280
attr repetition 0
attr replication #0
attr resultdir results
attr runnumber 0
attr seedset 0
param **.rsvp.procDelay 1us
param **.tcp.typename "\"Tcp\""
param **.tcp.mss 1024
param **.tcp.advertisedWindow 14336
param **.tcp.tcpAlgorithmClass "\"TcpReno\""
param **.eth[*].mac.queue.typename "\"EtherQosQueue\""
param **.eth[*].mac.queue.dataQueue.typename "\"DropTailQueue\""
param **.eth[*].mac.queue.dataQueue.packetCapacity 100
param **.ospfConfig "xmldoc(\"RouteConfig.xml\")"
param **.bgpConfig "xmldoc(\"ASConfig.xml\")"
param **.bgp.redistributeOspf "\"O IA E2\""
param **.HA*.numApps 1
param **.HB*.numApps 1
param **.HC*.numApps 1
param **.app[0].messageLength "32 bytes"
param **.app[0].sendInterval 2s
param **.app[0].localPort 1234
param **.app[0].destPort 1234
param **.HA11.app[*].typename "\"UdpBasicApp\""
param **.HA11.app[0].destAddresses "\"192.170.1.2\""
param **.HA21.app[*].typename "\"UdpBasicApp\""
param **.HA21.app[0].destAddresses "\"192.169.1.2\""
param **.HA31.app[*].typename "\"UdpBasicApp\""
param **.HA31.app[0].destAddresses "\"192.172.1.2\""
param **.HA41.app[*].typename "\"UdpBasicApp\""
param **.HA41.app[0].destAddresses "\"192.172.1.2\""
param **.HA51.app[*].typename "\"UdpBasicApp\""
param **.HA51.app[0].destAddresses "\"192.172.1.2\""
param **.HB11.app[*].typename "\"UdpBasicApp\""
param **.HB11.app[0].destAddresses "\"192.169.1.2\""
param **.HB21.app[*].typename "\"UdpBasicApp\""
param **.HB21.app[0].destAddresses "\"192.168.1.2\""
param **.HB31.app[*].typename "\"UdpBasicApp\""
param **.HB31.app[0].destAddresses "\"192.168.1.2\""
param **.HC11.app[*].typename "\"UdpBasicApp\""
param **.HC11.app[0].destAddresses "\"192.181.1.2\""
param **.HA12.app[*].typename "\"UdpSink\""
param **.HA22.app[*].typename "\"UdpSink\""
param **.HA32.app[*].typename "\"UdpSink\""
param **.HA42.app[*].typename "\"UdpSink\""
param **.HA52.app[*].typename "\"UdpSink\""
param **.HB12.app[*].typename "\"UdpSink\""
param **.HB22.app[*].typename "\"UdpSink\""
param **.HB32.app[*].typename "\"UdpSink\""
param **.HC12.app[*].typename "\"UdpSink\""
param *.visualizer.interfaceTableVisualizer.displayInterfaceTables true

scalar CampusNetwork.A.lo[0].lo rcvdPkFromHl:count 0
attr interpolationmode none
attr source packetReceivedFromUpper
attr title "packets received from higher layer, count"
scalar CampusNetwork.A.lo[0].lo rcvdPkFromHl:sum(packetBytes) 0
attr interpolationmode none
attr source packetReceivedFromUpper
attr title "packets received from higher layer, sum(packetBytes)"
scalar CampusNetwork.A.lo[0].lo passedUpPk:count 0
attr interpolationmode none
attr source packetSentToUpper
attr title "packets passed to higher layer, count"
scalar CampusNetwork.A.lo[0].lo passedUpPk:sum(packetBytes) 0
attr interpolationmode none
attr source packetSentToUpper
attr title "packets passed to higher layer, sum(packetBytes)"
scalar CampusNetwork.A.ppp[0].ppp.queue packetPopped:count 16
attr interpolationmode none
attr title "packet popped, count"
scalar CampusNetwork.A.ppp[0].ppp.queue packetPopped:sum(packetBytes) 1.12e+003
attr interpolationmode none
attr title "packet popped, sum(packetBytes)"
statistic CampusNetwork.A.ppp[0].ppp.queue queueingTime:histogram
field count 16
field mean 2.35e-007
field stddev 9.4e-007
field min 0
field max 3.76e-006
field sum 3.76e-006
field sqrsum 1.41e-011
attr interpolationmode none
attr source queueingTime(packetPopped)
attr title "queueing times, histogram"
attr unit s
bin	-inf	0
bin	0	15
bin	1e-007	0
bin	2e-007	0
bin	3e-007	0
bin	4e-007	0
bin	5e-007	0
bin	6e-007	0
bin	7e-007	0
bin	8e-007	0
bin	9e-007	0
bin	1e-006	0
bin	1.1e-006	0
bin	1.2e-006	0
bin	1.3e-006	0
bin	1.4e-006	0
bin	1.5e-006	0
bin	1.6e-006	0
bin	1.7e-006	0
bin	1.8e-006	0
bin	1.9e-006	0
bin	2e-006	0
bin	2.1e-006	0
bin	2.2e-006	0
bin	2.3e-006	0
bin	2.4e-006	0
bin	2.5e-006	0
bin	2.6e-006	0
bin	2.7e-006	0
bin	2.8e-006	0
bin	2.9e-006	0
bin	3e-006	0
bin	3.1e-006	0
bin	3.2e-006	0
bin	3.3e-006	0
bin	3.4e-006	0
bin	3.5e-006	0
bin	3.6e-006	0
bin	3.7e-006	1
bin	3.8e-006	0
bin	3.9e-006	0
bin	4e-006	0
bin	4.1e-006	0
bin	4.2e-006	0
bin	4.3e-006	0
bin	4.4e-006	0
bin	4.5e-006	0
bin	4.6e-006	0
bin	4.7e-006	0
scalar CampusNetwork.A.ppp[0].ppp.queue queueLength:max 1
attr interpolationmode sample-hold
attr source "count(packetPushed) - count(packetPopped) - count(packetRemoved) - count(packetDropped)"
attr title "queue length, max"
scalar CampusNetwork.A.ppp[0].ppp.queue queueLength:timeavg 3.82e-009
attr interpolationmode sample-hold
attr source "count(packetPushed) - count(packetPopped) - count(packetRemoved) - count(packetDropped)"
attr title "queue length, timeavg"
scalar CampusNetwork.A.ppp[0].ppp.queue packetPushed:count 16
attr interpolationmode none
attr title "packet pushed, count"
scalar CampusNetwork.A.ppp[0].ppp.queue packetPushed:sum(packetBytes) 1.12e+003
attr interpolationmode none
attr title "packet pushed, sum(packetBytes)"
scalar CampusNetwork.A.ppp[0].ppp.queue packetDropQueueOverflow:count 0
attr interpolationmode none
attr source packetDropReasonIsQueueOverflow(packetDropped)
attr title "packet drops: queue overflow, count"
scalar CampusNetwork.A.ppp[0].ppp.queue packetDropQueueOverflow:sum(packetBytes) 0
attr interpolationmode none
attr source packetDropReasonIsQueueOverflow(packetDropped)
attr title "packet drops: queue overflow, sum(packetBytes)"
scalar CampusNetwork.A.ppp[0].ppp.queue packetRemoved:count 0
attr interpolationmode none
attr title "packets removed, count"
scalar CampusNetwork.A.ppp[0].ppp.queue packetRemoved:sum(packetBytes) 0
attr interpolationmode none
attr title "packets removed, sum(packetBytes)"
scalar CampusNetwork.A.ppp[0].ppp txPk:count 16
attr interpolationmode none
attr source packetSentToLower
attr title "packets transmitted, count"
scalar CampusNetwork.A.ppp[0].ppp txPk:sum(packetBytes) 1.23e+003
attr interpolationmode none
attr source packetSentToLower
attr title "packets transmitted, sum(packetBytes)"
scalar CampusNetwork.A.ppp[0].ppp rcvdPkFromHl:count 16
attr interpolationmode none
attr source packetReceivedFromUpper
attr title "packets received from higher layer, count"
scalar CampusNetwork.A.ppp[0].ppp rcvdPkFromHl:sum(packetBytes) 1.12e+003
attr interpolationmode none
attr source packetReceivedFromUpper
attr title "packets received from higher layer, sum(packetBytes)"
scalar CampusNetwork.A.ppp[0].ppp passedUpPk:count 15
attr interpolationmode none
attr source packetSentToUpper
attr title "packets passed to higher layer, count"
scalar CampusNetwork.A.ppp[0].ppp passedUpPk:sum(packetBytes) 946
attr interpolationmode none
attr source packetSentToUpper
attr title "packets passed to higher layer, sum(packetBytes)"
scalar CampusNetwork.A.ppp[0].ppp packetDropIncorrectlyReceived:count 0
attr interpolationmode none
attr source packetDropReasonIsIncorrectlyReceived(packetDropped)
attr title "packet drop: incorrectly received, count"
scalar CampusNetwork.A.ppp[0].ppp packetDropIncorrectlyReceived:sum(packetBytes) 0
attr interpolationmode none
attr source packetDropReasonIsIncorrectlyReceived(packetDropped)
attr title "packet drop: incorrectly received, sum(packetBytes)"
scalar CampusNetwork.A.ppp[0].ppp packetDropInterfaceDown:count 0
attr interpolationmode none
attr source packetDropReasonIsInterfaceDown(packetDropped)
attr title "packet drop: interface down, count"
scalar CampusNetwork.A.ppp[0].ppp packetDropInterfaceDown:sum(packetBytes) 0
attr interpolationmode none
attr source packetDropReasonIsInterfaceDown(packetDropped)
attr title "packet drop: interface down, sum(packetBytes)"
scalar CampusNetwork.A.ppp[0].ppp rxPkOk:count 15
attr interpolationmode none
attr source rxPkOk
attr title "packets received OK, count"
scalar CampusNetwork.A.ppp[0].ppp rxPkOk:sum(packetBytes) 1.05e+003
attr interpolationmode none
attr source rxPkOk
attr title "packets received OK, sum(packetBytes)"
scalar CampusNetwork.A.ppp[0].ppp transmissionState:timeavg 9.83e-008
attr interpolationmode sample-hold
attr source transmissionStateChanged
attr title "tx state, timeavg"
scalar CampusNetwork.A.ppp[1].ppp.queue packetPopped:count 1.49e+003
attr interpolationmode none
attr title "packet popped, count"
scalar CampusNetwork.A.ppp[1].ppp.queue packetPopped:sum(packetBytes) 8.94e+004
attr interpolationmode none
attr title "packet popped, sum(packetBytes)"
statistic CampusNetwork.A.ppp[1].ppp.queue queueingTime:histogram
field count 1487
field mean 5.31e-006
field stddev 4.39e-006
field min 0
field max 1.07e-005
field sum 0.0079
field sqrsum 7.05e-008
attr interpolationmode none
attr source queueingTime(packetPopped)
attr title "queueing times, histogram"
attr unit s
bin	-inf	0
bin	0	504
bin	2e-007	0
bin	4e-007	0
bin	6e-007	0
bin	8e-007	0
bin	1e-006	0
bin	1.2e-006	0
bin	1.4e-006	0
bin	1.6e-006	0
bin	1.8e-006	0
bin	2e-006	0
bin	2.2e-006	0
bin	2.4e-006	0
bin	2.6e-006	0
bin	2.8e-006	0
bin	3e-006	0
bin	3.2e-006	0
bin	3.4e-006	0
bin	3.6e-006	1
bin	3.8e-006	0
bin	4e-006	0
bin	4.2e-006	0
bin	4.4e-006	0
bin	4.6e-006	0
bin	4.8e-006	0
bin	5e-006	0
bin	5.2e-006	491
bin	5.4e-006	0
bin	5.6e-006	0
bin	5.8e-006	0
bin	6e-006	0
bin	6.2e-006	0
bin	6.4e-006	0
bin	6.6e-006	0
bin	6.8e-006	0
bin	7e-006	0
bin	7.2e-006	0
bin	7.4e-006	0
bin	7.6e-006	0
bin	7.8e-006	0
bin	8e-006	0
bin	8.2e-006	0
bin	8.4e-006	0
bin	8.6e-006	0
bin	8.8e-006	0
bin	9e-006	0
bin	9.2e-006	0
bin	9.4e-006	0
bin	9.6e-006	0
bin	9.8e-006	0
bin	1e-005	0
bin	1.02e-005	0
bin	1.04e-005	0
bin	1.06e-005	491
bin	1.08e-005	0
bin	1.1e-005	0
bin	1.12e-005	0
bin	1.14e-005	0
bin	1.16e-005	0
bin	1.18e-005	0
bin	1.2e-005	0
bin	1.22e-005	0
bin	1.24e-005	0
bin	1.26e-005	0
bin	1.28e-005	0
bin	1.3e-005	0
bin	1.32e-005	0
bin	1.34e-005	0
scalar CampusNetwork.A.ppp[1].ppp.queue queueLength:max 2
attr interpolationmode sample-hold
attr source "count(packetPushed) - count(packetPopped) - count(packetRemoved) - count(packetDropped)"
attr title "queue length, max"
scalar CampusNetwork.A.ppp[1].ppp.queue queueLength:timeavg 8.04e-006
attr interpolationmode sample-hold
attr source "count(packetPushed) - count(packetPopped) - count(packetRemoved) - count(packetDropped)"
attr title "queue length, timeavg"
scalar CampusNetwork.A.ppp[1].ppp.queue packetPushed:count 1.49e+003
attr interpolationmode none
attr title "packet pushed, count"
scalar CampusNetwork.A.ppp[1].ppp.queue packetPushed:sum(packetBytes) 8.94e+004
attr interpolationmode none
attr title "packet pushed, sum(packetBytes)"
scalar CampusNetwork.A.ppp[1].ppp.queue packetDropQueueOverflow:count 0
attr interpolationmode none
attr source packetDropReasonIsQueueOverflow(packetDropped)
attr title "packet drops: queue overflow, count"
scalar CampusNetwork.A.ppp[1].ppp.queue packetDropQueueOverflow:sum(packetBytes) 0
attr interpolationmode none
attr source packetDropReasonIsQueueOverflow(packetDropped)
attr title "packet drops: queue overflow, sum(packetBytes)"
scalar CampusNetwork.A.ppp[1].ppp.queue packetRemoved:count 0
attr interpolationmode none
attr title "packets removed, count"
scalar CampusNetwork.A.ppp[1].ppp.queue packetRemoved:sum(packetBytes) 0
attr interpolationmode none
attr title "packets removed, sum(packetBytes)"
scalar CampusNetwork.A.ppp[1].ppp txPk:count 1.49e+003
attr interpolationmode none
attr source packetSentToLower
attr title "packets transmitted, count"
scalar CampusNetwork.A.ppp[1].ppp txPk:sum(packetBytes) 9.98e+004
attr interpolationmode none
attr source packetSentToLower
attr title "packets transmitted, sum(packetBytes)"
scalar CampusNetwork.A.ppp[1].ppp rcvdPkFromHl:count 1.49e+003
attr interpolationmode none
attr source packetReceivedFromUpper
attr title "packets received from higher layer, count"
scalar CampusNetwork.A.ppp[1].ppp rcvdPkFromHl:sum(packetBytes) 8.94e+004
attr interpolationmode none
attr source packetReceivedFromUpper
attr title "packets received from higher layer, sum(packetBytes)"
scalar CampusNetwork.A.ppp[1].ppp passedUpPk:count 13
attr interpolationmode none
attr source packetSentToUpper
attr title "packets passed to higher layer, count"
scalar CampusNetwork.A.ppp[1].ppp passedUpPk:sum(packetBytes) 870
attr interpolationmode none
attr source packetSentToUpper
attr title "packets passed to higher layer, sum(packetBytes)"
scalar CampusNetwork.A.ppp[1].ppp packetDropIncorrectlyReceived:count 0
attr interpolationmode none
attr source packetDropReasonIsIncorrectlyReceived(packetDropped)
attr title "packet drop: incorrectly received, count"
scalar CampusNetwork.A.ppp[1].ppp packetDropIncorrectlyReceived:sum(packetBytes) 0
attr interpolationmode none
attr source packetDropReasonIsIncorrectlyReceived(packetDropped)
attr title "packet drop: incorrectly received, sum(packetBytes)"
scalar CampusNetwork.A.ppp[1].ppp packetDropInterfaceDown:count 0
attr interpolationmode none
attr source packetDropReasonIsInterfaceDown(packetDropped)
attr title "packet drop: interface down, count"
scalar CampusNetwork.A.ppp[1].ppp packetDropInterfaceDown:sum(packetBytes) 0
attr interpolationmode none
attr source packetDropReasonIsInterfaceDown(packetDropped)
attr title "packet drop: interface down, sum(packetBytes)"
scalar CampusNetwork.A.ppp[1].ppp rxPkOk:count 13
attr interpolationmode none
attr source rxPkOk
attr title "packets received OK, count"
scalar CampusNetwork.A.ppp[1].ppp rxPkOk:sum(packetBytes) 961
attr interpolationmode none
attr source rxPkOk
attr title "packets received OK, sum(packetBytes)"
scalar CampusNetwork.A.ppp[1].ppp transmissionState:timeavg 7.99e-006
attr interpolationmode sample-hold
attr source transmissionStateChanged
attr title "tx state, timeavg"
scalar CampusNetwork.A.ppp[2].ppp.queue packetPopped:count 611
attr interpolationmode none
attr title "packet popped, count"
scalar CampusNetwork.A.ppp[2].ppp.queue packetPopped:sum(packetBytes) 3.58e+004
attr interpolationmode none
attr title "packet popped, sum(packetBytes)"
statistic CampusNetwork.A.ppp[2].ppp.queue queueingTime:histogram
field count 611
field mean 4.48e-008
field stddev 5.67e-007
field min 0
field max 1.02e-005
field sum 2.74e-005
field sqrsum 1.97e-010
attr interpolationmode none
attr source queueingTime(packetPopped)
attr title "queueing times, histogram"
attr unit s
bin	-inf	0
bin	0	606
bin	2e-007	0
bin	4e-007	1
bin	6e-007	0
bin	8e-007	0
bin	1e-006	0
bin	1.2e-006	0
bin	1.4e-006	0
bin	1.6e-006	0
bin	1.8e-006	0
bin	2e-006	0
bin	2.2e-006	0
bin	2.4e-006	0
bin	2.6e-006	0
bin	2.8e-006	0
bin	3e-006	0
bin	3.2e-006	0
bin	3.4e-006	0
bin	3.6e-006	0
bin	3.8e-006	0
bin	4e-006	0
bin	4.2e-006	0
bin	4.4e-006	0
bin	4.6e-006	1
bin	4.8e-006	0
bin	5e-006	0
bin	5.2e-006	0
bin	5.4e-006	0
bin	5.6e-006	1
bin	5.8e-006	0
bin	6e-006	0
bin	6.2e-006	1
bin	6.4e-006	0
bin	6.6e-006	0
bin	6.8e-006	0
bin	7e-006	0
bin	7.2e-006	0
bin	7.4e-006	0
bin	7.6e-006	0
bin	7.8e-006	0
bin	8e-006	0
bin	8.2e-006	0
bin	8.4e-006	0
bin	8.6e-006	0
bin	8.8e-006	0
bin	9e-006	0
bin	9.2e-006	0
bin	9.4e-006	0
bin	9.6e-006	0
bin	9.8e-006	0
bin	1e-005	1
bin	1.02e-005	0
bin	1.04e-005	0
bin	1.06e-005	0
bin	1.08e-005	0
bin	1.1e-005	0
bin	1.12e-005	0
bin	1.14e-005	0
bin	1.16e-005	0
bin	1.18e-005	0
bin	1.2e-005	0
bin	1.22e-005	0
bin	1.24e-005	0
bin	1.26e-005	0
bin	1.28e-005	0
scalar CampusNetwork.A.ppp[2].ppp.queue queueLength:max 2
attr interpolationmode sample-hold
attr source "count(packetPushed) - count(packetPopped) - count(packetRemoved) - count(packetDropped)"
attr title "queue length, max"
scalar CampusNetwork.A.ppp[2].ppp.queue queueLength:timeavg 2.74e-008
attr interpolationmode sample-hold
attr source "count(packetPushed) - count(packetPopped) - count(packetRemoved) - count(packetDropped)"
attr title "queue length, timeavg"
scalar CampusNetwork.A.ppp[2].ppp.queue packetPushed:count 611
attr interpolationmode none
attr title "packet pushed, count"
scalar CampusNetwork.A.ppp[2].ppp.queue packetPushed:sum(packetBytes) 3.58e+004
attr interpolationmode none
attr title "packet pushed, sum(packetBytes)"
scalar CampusNetwork.A.ppp[2].ppp.queue packetDropQueueOverflow:count 0
attr interpolationmode none
attr source packetDropReasonIsQueueOverflow(packetDropped)
attr title "packet drops: queue overflow, count"
scalar CampusNetwork.A.ppp[2].ppp.queue packetDropQueueOverflow:sum(packetBytes) 0
attr interpolationmode none
attr source packetDropReasonIsQueueOverflow(packetDropped)
attr title "packet drops: queue overflow, sum(packetBytes)"
scalar CampusNetwork.A.ppp[2].ppp.queue packetRemoved:count 0
attr interpolationmode none
attr title "packets removed, count"
scalar CampusNetwork.A.ppp[2].ppp.queue packetRemoved:sum(packetBytes) 0
attr interpolationmode none
attr title "packets removed, sum(packetBytes)"
scalar CampusNetwork.A.ppp[2].ppp txPk:count 611
attr interpolationmode none
attr source packetSentToLower
attr title "packets transmitted, count"
scalar CampusNetwork.A.ppp[2].ppp txPk:sum(packetBytes) 4e+004
attr interpolationmode none
attr source packetSentToLower
attr title "packets transmitted, sum(packetBytes)"
scalar CampusNetwork.A.ppp[2].ppp rcvdPkFromHl:count 611
attr interpolationmode none
attr source packetReceivedFromUpper
attr title "packets received from higher layer, count"
scalar CampusNetwork.A.ppp[2].ppp rcvdPkFromHl:sum(packetBytes) 3.58e+004
attr interpolationmode none
attr source packetReceivedFromUpper
attr title "packets received from higher layer, sum(packetBytes)"
scalar CampusNetwork.A.ppp[2].ppp passedUpPk:count 614
attr interpolationmode none
attr source packetSentToUpper
attr title "packets passed to higher layer, count"
scalar CampusNetwork.A.ppp[2].ppp passedUpPk:sum(packetBytes) 3.8e+004
attr interpolationmode none
attr source packetSentToUpper
attr title "packets passed to higher layer, sum(packetBytes)"
scalar CampusNetwork.A.ppp[2].ppp packetDropIncorrectlyReceived:count 0
attr interpolationmode none
attr source packetDropReasonIsIncorrectlyReceived(packetDropped)
attr title "packet drop: incorrectly received, count"
scalar CampusNetwork.A.ppp[2].ppp packetDropIncorrectlyReceived:sum(packetBytes) 0
attr interpolationmode none
attr source packetDropReasonIsIncorrectlyReceived(packetDropped)
attr title "packet drop: incorrectly received, sum(packetBytes)"
scalar CampusNetwork.A.ppp[2].ppp packetDropInterfaceDown:count 0
attr interpolationmode none
attr source packetDropReasonIsInterfaceDown(packetDropped)
attr title "packet drop: interface down, count"
scalar CampusNetwork.A.ppp[2].ppp packetDropInterfaceDown:sum(packetBytes) 0
attr interpolationmode none
attr source packetDropReasonIsInterfaceDown(packetDropped)
attr title "packet drop: interface down, sum(packetBytes)"
scalar CampusNetwork.A.ppp[2].ppp rxPkOk:count 614
attr interpolationmode none
attr source rxPkOk
attr title "packets received OK, count"
scalar CampusNetwork.A.ppp[2].ppp rxPkOk:sum(packetBytes) 4.23e+004
attr interpolationmode none
attr source rxPkOk
attr title "packets received OK, sum(packetBytes)"
scalar CampusNetwork.A.ppp[2].ppp transmissionState:timeavg 3.2e-006
attr interpolationmode sample-hold
attr source transmissionStateChanged
attr title "tx state, timeavg"
scalar CampusNetwork.A.ppp[3].ppp.queue packetPopped:count 109
attr interpolationmode none
attr title "packet popped, count"
scalar CampusNetwork.A.ppp[3].ppp.queue packetPopped:sum(packetBytes) 7.64e+003
attr interpolationmode none
attr title "packet popped, sum(packetBytes)"
statistic CampusNetwork.A.ppp[3].ppp.queue queueingTime:histogram
field count 109
field mean 9.54e-008
field stddev 7.04e-007
field min 0
field max 5.68e-006
field sum 1.04e-005
field sqrsum 5.45e-011
attr interpolationmode none
attr source queueingTime(packetPopped)
attr title "queueing times, histogram"
attr unit s
bin	-inf	0
bin	0	107
bin	1e-007	0
bin	2e-007	0
bin	3e-007	0
bin	4e-007	0
bin	5e-007	0
bin	6e-007	0
bin	7e-007	0
bin	8e-007	0
bin	9e-007	0
bin	1e-006	0
bin	1.1e-006	0
bin	1.2e-006	0
bin	1.3e-006	0
bin	1.4e-006	0
bin	1.5e-006	0
bin	1.6e-006	0
bin	1.7e-006	0
bin	1.8e-006	0
bin	1.9e-006	0
bin	2e-006	0
bin	2.1e-006	0
bin	2.2e-006	0
bin	2.3e-006	0
bin	2.4e-006	0
bin	2.5e-006	0
bin	2.6e-006	0
bin	2.7e-006	0
bin	2.8e-006	0
bin	2.9e-006	0
bin	3e-006	0
bin	3.1e-006	0
bin	3.2e-006	0
bin	3.3e-006	0
bin	3.4e-006	0
bin	3.5e-006	0
bin	3.6e-006	0
bin	3.7e-006	0
bin	3.8e-006	0
bin	3.9e-006	0
bin	4e-006	0
bin	4.1e-006	0
bin	4.2e-006	0
bin	4.3e-006	0
bin	4.4e-006	0
bin	4.5e-006	0
bin	4.6e-006	0
bin	4.7e-006	1
bin	4.8e-006	0
bin	4.9e-006	0
bin	5e-006	0
bin	5.1e-006	0
bin	5.2e-006	0
bin	5.3e-006	0
bin	5.4e-006	0
bin	5.5e-006	0
bin	5.6e-006	1
bin	5.7e-006	0
bin	5.8e-006	0
bin	5.9e-006	0
bin	6e-006	0
bin	6.1e-006	0
bin	6.2e-006	0
bin	6.3e-006	0
bin	6.4e-006	0
bin	6.5e-006	0
bin	6.6e-006	0
bin	6.7e-006	0
bin	6.8e-006	0
bin	6.9e-006	0
bin	7e-006	0
bin	7.1e-006	0
scalar CampusNetwork.A.ppp[3].ppp.queue queueLength:max 1
attr interpolationmode sample-hold
attr source "count(packetPushed) - count(packetPopped) - count(packetRemoved) - count(packetDropped)"
attr title "queue length, max"
scalar CampusNetwork.A.ppp[3].ppp.queue queueLength:timeavg 1.04e-008
attr interpolationmode sample-hold
attr source "count(packetPushed) - count(packetPopped) - count(packetRemoved) - count(packetDropped)"
attr title "queue length, timeavg"
scalar CampusNetwork.A.ppp[3].ppp.queue packetPushed:count 109
attr interpolationmode none
attr title "packet pushed, count"
scalar CampusNetwork.A.ppp[3].ppp.queue packetPushed:sum(packetBytes) 7.64e+003
attr interpolationmode none
attr title "packet pushed, sum(packetBytes)"
scalar CampusNetwork.A.ppp[3].ppp.queue packetDropQueueOverflow:count 0
attr interpolationmode none
attr source packetDropReasonIsQueueOverflow(packetDropped)
attr title "packet drops: queue overflow, count"
scalar CampusNetwork.A.ppp[3].ppp.queue packetDropQueueOverflow:sum(packetBytes) 0
attr interpolationmode none
attr source packetDropReasonIsQueueOverflow(packetDropped)
attr title "packet drops: queue overflow, sum(packetBytes)"
scalar CampusNetwork.A.ppp[3].ppp.queue packetRemoved:count 0
attr interpolationmode none
attr title "packets removed, count"
scalar CampusNetwork.A.ppp[3].ppp.queue packetRemoved:sum(packetBytes) 0
attr interpolationmode none
attr title "packets removed, sum(packetBytes)"
scalar CampusNetwork.A.ppp[3].ppp txPk:count 109
attr interpolationmode none
attr source packetSentToLower
attr title "packets transmitted, count"
scalar CampusNetwork.A.ppp[3].ppp txPk:sum(packetBytes) 8.4e+003
attr interpolationmode none
attr source packetSentToLower
attr title "packets transmitted, sum(packetBytes)"
scalar CampusNetwork.A.ppp[3].ppp rcvdPkFromHl:count 109
attr interpolationmode none
attr source packetReceivedFromUpper
attr title "packets received from higher layer, count"
scalar CampusNetwork.A.ppp[3].ppp rcvdPkFromHl:sum(packetBytes) 7.64e+003
attr interpolationmode none
attr source packetReceivedFromUpper
attr title "packets received from higher layer, sum(packetBytes)"
scalar CampusNetwork.A.ppp[3].ppp passedUpPk:count 108
attr interpolationmode none
attr source packetSentToUpper
attr title "packets passed to higher layer, count"
scalar CampusNetwork.A.ppp[3].ppp passedUpPk:sum(packetBytes) 7.5e+003
attr interpolationmode none
attr source packetSentToUpper
attr title "packets passed to higher layer, sum(packetBytes)"
scalar CampusNetwork.A.ppp[3].ppp packetDropIncorrectlyReceived:count 0
attr interpolationmode none
attr source packetDropReasonIsIncorrectlyReceived(packetDropped)
attr title "packet drop: incorrectly received, count"
scalar CampusNetwork.A.ppp[3].ppp packetDropIncorrectlyReceived:sum(packetBytes) 0
attr interpolationmode none
attr source packetDropReasonIsIncorrectlyReceived(packetDropped)
attr title "packet drop: incorrectly received, sum(packetBytes)"
scalar CampusNetwork.A.ppp[3].ppp packetDropInterfaceDown:count 0
attr interpolationmode none
attr source packetDropReasonIsInterfaceDown(packetDropped)
attr title "packet drop: interface down, count"
scalar CampusNetwork.A.ppp[3].ppp packetDropInterfaceDown:sum(packetBytes) 0
attr interpolationmode none
attr source packetDropReasonIsInterfaceDown(packetDropped)
attr title "packet drop: interface down, sum(packetBytes)"
scalar CampusNetwork.A.ppp[3].ppp rxPkOk:count 108
attr interpolationmode none
attr source rxPkOk
attr title "packets received OK, count"
scalar CampusNetwork.A.ppp[3].ppp rxPkOk:sum(packetBytes) 8.26e+003
attr interpolationmode none
attr source rxPkOk
attr title "packets received OK, sum(packetBytes)"
scalar CampusNetwork.A.ppp[3].ppp transmissionState:timeavg 6.72e-007
attr interpolationmode sample-hold
attr source transmissionStateChanged
attr title "tx state, timeavg"
scalar CampusNetwork.A.ppp[4].ppp.queue packetPopped:count 0
attr interpolationmode none
attr title "packet popped, count"
scalar CampusNetwork.A.ppp[4].ppp.queue packetPopped:sum(packetBytes) 0
attr interpolationmode none
attr title "packet popped, sum(packetBytes)"
statistic CampusNetwork.A.ppp[4].ppp.queue queueingTime:histogram
field count 0
field mean nan
field stddev nan
field min nan
field max nan
field sum 0
field sqrsum 0
attr interpolationmode none
attr source queueingTime(packetPopped)
attr title "queueing times, histogram"
attr unit s
bin	-inf	0
bin	0	0
bin	1	0
scalar CampusNetwork.A.ppp[4].ppp.queue queueLength:max nan
attr interpolationmode sample-hold
attr source "count(packetPushed) - count(packetPopped) - count(packetRemoved) - count(packetDropped)"
attr title "queue length, max"
scalar CampusNetwork.A.ppp[4].ppp.queue queueLength:timeavg nan
attr interpolationmode sample-hold
attr source "count(packetPushed) - count(packetPopped) - count(packetRemoved) - count(packetDropped)"
attr title "queue length, timeavg"
scalar CampusNetwork.A.ppp[4].ppp.queue packetPushed:count 0
attr interpolationmode none
attr title "packet pushed, count"
scalar CampusNetwork.A.ppp[4].ppp.queue packetPushed:sum(packetBytes) 0
attr interpolationmode none
attr title "packet pushed, sum(packetBytes)"
scalar CampusNetwork.A.ppp[4].ppp.queue packetDropQueueOverflow:count 0
attr interpolationmode none
attr source packetDropReasonIsQueueOverflow(packetDropped)
attr title "packet drops: queue overflow, count"
scalar CampusNetwork.A.ppp[4].ppp.queue packetDropQueueOverflow:sum(packetBytes) 0
attr interpolationmode none
attr source packetDropReasonIsQueueOverflow(packetDropped)
attr title "packet drops: queue overflow, sum(packetBytes)"
scalar CampusNetwork.A.ppp[4].ppp.queue packetRemoved:count 0
attr interpolationmode none
attr title "packets removed, count"
scalar CampusNetwork.A.ppp[4].ppp.queue packetRemoved:sum(packetBytes) 0
attr interpolationmode none
attr title "packets removed, sum(packetBytes)"
scalar CampusNetwork.A.ppp[4].ppp txPk:count 0
attr interpolationmode none
attr source packetSentToLower
attr title "packets transmitted, count"
scalar CampusNetwork.A.ppp[4].ppp txPk:sum(packetBytes) 0
attr interpolationmode none
attr source packetSentToLower
attr title "packets transmitted, sum(packetBytes)"
scalar CampusNetwork.A.ppp[4].ppp rcvdPkFromHl:count 0
attr interpolationmode none
attr source packetReceivedFromUpper
attr title "packets received from higher layer, count"
scalar CampusNetwork.A.ppp[4].ppp rcvdPkFromHl:sum(packetBytes) 0
attr interpolationmode none
attr source packetReceivedFromUpper
attr title "packets received from higher layer, sum(packetBytes)"
scalar CampusNetwork.A.ppp[4].ppp passedUpPk:count 599
attr interpolationmode none
attr source packetSentToUpper
attr title "packets passed to higher layer, count"
scalar CampusNetwork.A.ppp[4].ppp passedUpPk:sum(packetBytes) 3.63e+004
attr interpolationmode none
attr source packetSentToUpper
attr title "packets passed to higher layer, sum(packetBytes)"
scalar CampusNetwork.A.ppp[4].ppp packetDropIncorrectlyReceived:count 0
attr interpolationmode none
attr source packetDropReasonIsIncorrectlyReceived(packetDropped)
attr title "packet drop: incorrectly received, count"
scalar CampusNetwork.A.ppp[4].ppp packetDropIncorrectlyReceived:sum(packetBytes) 0
attr interpolationmode none
attr source packetDropReasonIsIncorrectlyReceived(packetDropped)
attr title "packet drop: incorrectly received, sum(packetBytes)"
scalar CampusNetwork.A.ppp[4].ppp packetDropInterfaceDown:count 0
attr interpolationmode none
attr source packetDropReasonIsInterfaceDown(packetDropped)
attr title "packet drop: interface down, count"
scalar CampusNetwork.A.ppp[4].ppp packetDropInterfaceDown:sum(packetBytes) 0
attr interpolationmode none
attr source packetDropReasonIsInterfaceDown(packetDropped)
attr title "packet drop: interface down, sum(packetBytes)"
scalar CampusNetwork.A.ppp[4].ppp rxPkOk:count 599
attr interpolationmode none
attr source rxPkOk
attr title "packets received OK, count"
scalar CampusNetwork.A.ppp[4].ppp rxPkOk:sum(packetBytes) 4.05e+004
attr interpolationmode none
attr source rxPkOk
attr title "packets received OK, sum(packetBytes)"
scalar CampusNetwork.A.ppp[4].ppp transmissionState:timeavg 0
attr interpolationmode sample-hold
attr source transmissionStateChanged
attr title "tx state, timeavg"
scalar CampusNetwork.A.ppp[5].ppp.queue packetPopped:count 0
attr interpolationmode none
attr title "packet popped, count"
scalar CampusNetwork.A.ppp[5].ppp.queue packetPopped:sum(packetBytes) 0
attr interpolationmode none
attr title "packet popped, sum(packetBytes)"
statistic CampusNetwork.A.ppp[5].ppp.queue queueingTime:histogram
field count 0
field mean nan
field stddev nan
field min nan
field max nan
field sum 0
field sqrsum 0
attr interpolationmode none
attr source queueingTime(packetPopped)
attr title "queueing times, histogram"
attr unit s
bin	-inf	0
bin	0	0
bin	1	0
scalar CampusNetwork.A.ppp[5].ppp.queue queueLength:max nan
attr interpolationmode sample-hold
attr source "count(packetPushed) - count(packetPopped) - count(packetRemoved) - count(packetDropped)"
attr title "queue length, max"
scalar CampusNetwork.A.ppp[5].ppp.queue queueLength:timeavg nan
attr interpolationmode sample-hold
attr source "count(packetPushed) - count(packetPopped) - count(packetRemoved) - count(packetDropped)"
attr title "queue length, timeavg"
scalar CampusNetwork.A.ppp[5].ppp.queue packetPushed:count 0
attr interpolationmode none
attr title "packet pushed, count"
scalar CampusNetwork.A.ppp[5].ppp.queue packetPushed:sum(packetBytes) 0
attr interpolationmode none
attr title "packet pushed, sum(packetBytes)"
scalar CampusNetwork.A.ppp[5].ppp.queue packetDropQueueOverflow:count 0
attr interpolationmode none
attr source packetDropReasonIsQueueOverflow(packetDropped)
attr title "packet drops: queue overflow, count"
scalar CampusNetwork.A.ppp[5].ppp.queue packetDropQueueOverflow:sum(packetBytes) 0
attr interpolationmode none
attr source packetDropReasonIsQueueOverflow(packetDropped)
attr title "packet drops: queue overflow, sum(packetBytes)"
scalar CampusNetwork.A.ppp[5].ppp.queue packetRemoved:count 0
attr interpolationmode none
attr title "packets removed, count"
scalar CampusNetwork.A.ppp[5].ppp.queue packetRemoved:sum(packetBytes) 0
attr interpolationmode none
attr title "packets removed, sum(packetBytes)"
scalar CampusNetwork.A.ppp[5].ppp txPk:count 0
attr interpolationmode none
attr source packetSentToLower
attr title "packets transmitted, count"
scalar CampusNetwork.A.ppp[5].ppp txPk:sum(packetBytes) 0
attr interpolationmode none
attr source packetSentToLower
attr title "packets transmitted, sum(packetBytes)"
scalar CampusNetwork.A.ppp[5].ppp rcvdPkFromHl:count 0
attr interpolationmode none
attr source packetReceivedFromUpper
attr title "packets received from higher layer, count"
scalar CampusNetwork.A.ppp[5].ppp rcvdPkFromHl:sum(packetBytes) 0
attr interpolationmode none
attr source packetReceivedFromUpper
attr title "packets received from higher layer, sum(packetBytes)"
scalar CampusNetwork.A.ppp[5].ppp passedUpPk:count 599
attr interpolationmode none
attr source packetSentToUpper
attr title "packets passed to higher layer, count"
scalar CampusNetwork.A.ppp[5].ppp passedUpPk:sum(packetBytes) 3.63e+004
attr interpolationmode none
attr source packetSentToUpper
attr title "packets passed to higher layer, sum(packetBytes)"
scalar CampusNetwork.A.ppp[5].ppp packetDropIncorrectlyReceived:count 0
attr interpolationmode none
attr source packetDropReasonIsIncorrectlyReceived(packetDropped)
attr title "packet drop: incorrectly received, count"
scalar CampusNetwork.A.ppp[5].ppp packetDropIncorrectlyReceived:sum(packetBytes) 0
attr interpolationmode none
attr source packetDropReasonIsIncorrectlyReceived(packetDropped)
attr title "packet drop: incorrectly received, sum(packetBytes)"
scalar CampusNetwork.A.ppp[5].ppp packetDropInterfaceDown:count 0
attr interpolationmode none
attr source packetDropReasonIsInterfaceDown(packetDropped)
attr title "packet drop: interface down, count"
scalar CampusNetwork.A.ppp[5].ppp packetDropInterfaceDown:sum(packetBytes) 0
attr interpolationmode none
attr source packetDropReasonIsInterfaceDown(packetDropped)
attr title "packet drop: interface down, sum(packetBytes)"
scalar CampusNetwork.A.ppp[5].ppp rxPkOk:count 599
attr interpolationmode none
attr source rxPkOk
attr title "packets received OK, count"
scalar CampusNetwork.A.ppp[5].ppp rxPkOk:sum(packetBytes) 4.05e+004
attr interpolationmode none
attr source rxPkOk
attr title "packets received OK, sum(packetBytes)"
scalar CampusNetwork.A.ppp[5].ppp transmissionState:timeavg 0
attr interpolationmode sample-hold
attr source transmissionStateChanged
attr title "tx state, timeavg"
scalar CampusNetwork.A.ppp[6].ppp.queue packetPopped:count 0
attr interpolationmode none
attr title "packet popped, count"
scalar CampusNetwork.A.ppp[6].ppp.queue packetPopped:sum(packetBytes) 0
attr interpolationmode none
attr title "packet popped, sum(packetBytes)"
statistic CampusNetwork.A.ppp[6].ppp.queue queueingTime:histogram
field count 0
field mean nan
field stddev nan
field min nan
field max nan
field sum 0
field sqrsum 0
attr interpolationmode none
attr source queueingTime(packetPopped)
attr title "queueing times, histogram"
attr unit s
bin	-inf	0
bin	0	0
bin	1	0
scalar CampusNetwork.A.ppp[6].ppp.queue queueLength:max nan
attr interpolationmode sample-hold
attr source "count(packetPushed) - count(packetPopped) - count(packetRemoved) - count(packetDropped)"
attr title "queue length, max"
scalar CampusNetwork.A.ppp[6].ppp.queue queueLength:timeavg nan
attr interpolationmode sample-hold
attr source "count(packetPushed) - count(packetPopped) - count(packetRemoved) - count(packetDropped)"
attr title "queue length, timeavg"
scalar CampusNetwork.A.ppp[6].ppp.queue packetPushed:count 0
attr interpolationmode none
attr title "packet pushed, count"
scalar CampusNetwork.A.ppp[6].ppp.queue packetPushed:sum(packetBytes) 0
attr interpolationmode none
attr title "packet pushed, sum(packetBytes)"
scalar CampusNetwork.A.ppp[6].ppp.queue packetDropQueueOverflow:count 0
attr interpolationmode none
attr source packetDropReasonIsQueueOverflow(packetDropped)
attr title "packet drops: queue overflow, count"
scalar CampusNetwork.A.ppp[6].ppp.queue packetDropQueueOverflow:sum(packetBytes) 0
attr interpolationmode none
attr source packetDropReasonIsQueueOverflow(packetDropped)
attr title "packet drops: queue overflow, sum(packetBytes)"
scalar CampusNetwork.A.ppp[6].ppp.queue packetRemoved:count 0
attr interpolationmode none
attr title "packets removed, count"
scalar CampusNetwork.A.ppp[6].ppp.queue packetRemoved:sum(packetBytes) 0
attr interpolationmode none
attr title "packets removed, sum(packetBytes)"
scalar CampusNetwork.A.ppp[6].ppp txPk:count 0
attr interpolationmode none
attr source packetSentToLower
attr title "packets transmitted, count"
scalar CampusNetwork.A.ppp[6].ppp txPk:sum(packetBytes) 0
attr interpolationmode none
attr source packetSentToLower
attr title "packets transmitted, sum(packetBytes)"
scalar CampusNetwork.A.ppp[6].ppp rcvdPkFromHl:count 0
attr interpolationmode none
attr source packetReceivedFromUpper
attr title "packets received from higher layer, count"
scalar CampusNetwork.A.ppp[6].ppp rcvdPkFromHl:sum(packetBytes) 0
attr interpolationmode none
attr source packetReceivedFromUpper
attr title "packets received from higher layer, sum(packetBytes)"
scalar CampusNetwork.A.ppp[6].ppp passedUpPk:count 599
attr interpolationmode none
attr source packetSentToUpper
attr title "packets passed to higher layer, count"
scalar CampusNetwork.A.ppp[6].ppp passedUpPk:sum(packetBytes) 3.63e+004
attr interpolationmode none
attr source packetSentToUpper
attr title "packets passed to higher layer, sum(packetBytes)"
scalar CampusNetwork.A.ppp[6].ppp packetDropIncorrectlyReceived:count 0
attr interpolationmode none
attr source packetDropReasonIsIncorrectlyReceived(packetDropped)
attr title "packet drop: incorrectly received, count"
scalar CampusNetwork.A.ppp[6].ppp packetDropIncorrectlyReceived:sum(packetBytes) 0
attr interpolationmode none
attr source packetDropReasonIsIncorrectlyReceived(packetDropped)
attr title "packet drop: incorrectly received, sum(packetBytes)"
scalar CampusNetwork.A.ppp[6].ppp packetDropInterfaceDown:count 0
attr interpolationmode none
attr source packetDropReasonIsInterfaceDown(packetDropped)
attr title "packet drop: interface down, count"
scalar CampusNetwork.A.ppp[6].ppp packetDropInterfaceDown:sum(packetBytes) 0
attr interpolationmode none
attr source packetDropReasonIsInterfaceDown(packetDropped)
attr title "packet drop: interface down, sum(packetBytes)"
scalar CampusNetwork.A.ppp[6].ppp rxPkOk:count 599
attr interpolationmode none
attr source rxPkOk
attr title "packets received OK, count"
scalar CampusNetwork.A.ppp[6].ppp rxPkOk:sum(packetBytes) 4.05e+004
attr interpolationmode none
attr source rxPkOk
attr title "packets received OK, sum(packetBytes)"
scalar CampusNetwork.A.ppp[6].ppp transmissionState:timeavg 0
attr interpolationmode sample-hold
attr source transmissionStateChanged
attr title "tx state, timeavg"
scalar CampusNetwork.A.ipv4.ip packetDropAddressResolutionFailed:count 0
attr interpolationmode none
attr source packetDropReasonIsAddressResolutionFailed(packetDropped)
attr title "packet drop: address resolution failed, count"
scalar CampusNetwork.A.ipv4.ip packetDropAddressResolutionFailed:sum(packetBytes) 0
attr interpolationmode none
attr source packetDropReasonIsAddressResolutionFailed(packetDropped)
attr title "packet drop: address resolution failed, sum(packetBytes)"
scalar CampusNetwork.A.ipv4.ip packetDropHopLimitReached:count 0
attr interpolationmode none
attr source packetDropReasonIsHopLimitReached(packetDropped)
attr title "packet drop: hop limit reached, count"
scalar CampusNetwork.A.ipv4.ip packetDropHopLimitReached:sum(packetBytes) 0
attr interpolationmode none
attr source packetDropReasonIsHopLimitReached(packetDropped)
attr title "packet drop: hop limit reached, sum(packetBytes)"
scalar CampusNetwork.A.ipv4.ip packetDropForwardingDisabled:count 0
attr interpolationmode none
attr source packetDropReasonIsForwardingDisabled(packetDropped)
attr title "packet drop: forwarding disabled, count"
scalar CampusNetwork.A.ipv4.ip packetDropForwardingDisabled:sum(packetBytes) 0
attr interpolationmode none
attr source packetDropReasonIsForwardingDisabled(packetDropped)
attr title "packet drop: forwarding disabled, sum(packetBytes)"
scalar CampusNetwork.A.ipv4.ip packetDropNoInterfaceFound:count 0
attr interpolationmode none
attr source packetDropReasonIsNoInterfaceFound(packetDropped)
attr title "packet drop: no interface found, count"
scalar CampusNetwork.A.ipv4.ip packetDropNoInterfaceFound:sum(packetBytes) 0
attr interpolationmode none
attr source packetDropReasonIsNoInterfaceFound(packetDropped)
attr title "packet drop: no interface found, sum(packetBytes)"
scalar CampusNetwork.A.ipv4.ip packetDropNoRouteFound:count 549
attr interpolationmode none
attr source packetDropReasonIsNoRouteFound(packetDropped)
attr title "packet drop: no route found, count"
scalar CampusNetwork.A.ipv4.ip packetDropNoRouteFound:sum(packetBytes) 3.28e+004
attr interpolationmode none
attr source packetDropReasonIsNoRouteFound(packetDropped)
attr title "packet drop: no route found, sum(packetBytes)"
scalar CampusNetwork.A.ipv4.ip packetDropUndefined:count 0
attr interpolationmode none
attr source packetDropReasonIsUndefined(packetDropped)
attr title "packet drop: undefined, count"
scalar CampusNetwork.A.ipv4.ip packetDropUndefined:sum(packetBytes) 0
attr interpolationmode none
attr source packetDropReasonIsUndefined(packetDropped)
attr title "packet drop: undefined, sum(packetBytes)"
scalar CampusNetwork.A.ipv4.arp arpReplySent:count 0
attr source arpReplySent
attr title "ARP replies sent, count"
scalar CampusNetwork.A.ipv4.arp arpReplySent:sum(packetBytes) 0
attr source arpReplySent
attr title "ARP replies sent, sum(packetBytes)"
scalar CampusNetwork.A.ipv4.arp arpRequestSent:count 0
attr source arpRequestSent
attr title "ARP request sent, count"
scalar CampusNetwork.A.ipv4.arp arpRequestSent:sum(packetBytes) 0
attr source arpRequestSent
attr title "ARP request sent, sum(packetBytes)"
scalar CampusNetwork.A.ipv4.arp arpResolutionFailed:count 0
attr title "ARP failed resolutions, count"
scalar CampusNetwork.A.ipv4.arp arpResolutionCompleted:count 0
attr title "ARP completed resolutions, count"
scalar CampusNetwork.A.ipv4.arp arpResolutionInitiated:count 0
attr title "ARP initiated resolutions, count"
scalar CampusNetwork.A.bgp OPENMsgSent 2
scalar CampusNetwork.A.bgp OPENMsgRecv 2
scalar CampusNetwork.A.bgp KeepAliveMsgSent 4
scalar CampusNetwork.A.bgp KeepAliveMsgRcv 4
scalar CampusNetwork.A.bgp UpdateMsgSent 18
scalar CampusNetwork.A.bgp UpdateMsgRcv 12
scalar CampusNetwork.B.lo[0].lo rcvdPkFromHl:count 0
attr interpolationmode none
attr source packetReceivedFromUpper
attr title "packets received from higher layer, count"
scalar CampusNetwork.B.lo[0].lo rcvdPkFromHl:sum(packetBytes) 0
attr interpolationmode none
attr source packetReceivedFromUpper
attr title "packets received from higher layer, sum(packetBytes)"
scalar CampusNetwork.B.lo[0].lo passedUpPk:count 0
attr interpolationmode none
attr source packetSentToUpper
attr title "packets passed to higher layer, count"
scalar CampusNetwork.B.lo[0].lo passedUpPk:sum(packetBytes) 0
attr interpolationmode none
attr source packetSentToUpper
attr title "packets passed to higher layer, sum(packetBytes)"
scalar CampusNetwork.B.ppp[0].ppp.queue packetPopped:count 15
attr interpolationmode none
attr title "packet popped, count"
scalar CampusNetwork.B.ppp[0].ppp.queue packetPopped:sum(packetBytes) 946
attr interpolationmode none
attr title "packet popped, sum(packetBytes)"
statistic CampusNetwork.B.ppp[0].ppp.queue queueingTime:histogram
field count 15
field mean 0
field stddev 0
field min 0
field max 0
field sum 0
field sqrsum 0
attr interpolationmode none
attr source queueingTime(packetPopped)
attr title "queueing times, histogram"
attr unit s
bin	-inf	0
bin	-0.5	0
bin	-0.48	0
bin	-0.46	0
bin	-0.44	0
bin	-0.42	0
bin	-0.4	0
bin	-0.38	0
bin	-0.36	0
bin	-0.34	0
bin	-0.32	0
bin	-0.3	0
bin	-0.28	0
bin	-0.26	0
bin	-0.24	0
bin	-0.22	0
bin	-0.2	0
bin	-0.18	0
bin	-0.16	0
bin	-0.14	0
bin	-0.12	0
bin	-0.1	0
bin	-0.08	0
bin	-0.06	0
bin	-0.04	0
bin	-0.02	0
bin	0	15
bin	0.02	0
bin	0.04	0
bin	0.06	0
bin	0.08	0
bin	0.1	0
bin	0.12	0
bin	0.14	0
bin	0.16	0
bin	0.18	0
bin	0.2	0
bin	0.22	0
bin	0.24	0
bin	0.26	0
bin	0.28	0
bin	0.3	0
bin	0.32	0
bin	0.34	0
bin	0.36	0
bin	0.38	0
bin	0.4	0
bin	0.42	0
bin	0.44	0
bin	0.46	0
bin	0.48	0
bin	0.5	0
scalar CampusNetwork.B.ppp[0].ppp.queue queueLength:max 1
attr interpolationmode sample-hold
attr source "count(packetPushed) - count(packetPopped) - count(packetRemoved) - count(packetDropped)"
attr title "queue length, max"
scalar CampusNetwork.B.ppp[0].ppp.queue queueLength:timeavg 0
attr interpolationmode sample-hold
attr source "count(packetPushed) - count(packetPopped) - count(packetRemoved) - count(packetDropped)"
attr title "queue length, timeavg"
scalar CampusNetwork.B.ppp[0].ppp.queue packetPushed:count 15
attr interpolationmode none
attr title "packet pushed, count"
scalar CampusNetwork.B.ppp[0].ppp.queue packetPushed:sum(packetBytes) 946
attr interpolationmode none
attr title "packet pushed, sum(packetBytes)"
scalar CampusNetwork.B.ppp[0].ppp.queue packetDropQueueOverflow:count 0
attr interpolationmode none
attr source packetDropReasonIsQueueOverflow(packetDropped)
attr title "packet drops: queue overflow, count"
scalar CampusNetwork.B.ppp[0].ppp.queue packetDropQueueOverflow:sum(packetBytes) 0
attr interpolationmode none
attr source packetDropReasonIsQueueOverflow(packetDropped)
attr title "packet drops: queue overflow, sum(packetBytes)"
scalar CampusNetwork.B.ppp[0].ppp.queue packetRemoved:count 0
attr interpolationmode none
attr title "packets removed, count"
scalar CampusNetwork.B.ppp[0].ppp.queue packetRemoved:sum(packetBytes) 0
attr interpolationmode none
attr title "packets removed, sum(packetBytes)"
scalar CampusNetwork.B.ppp[0].ppp txPk:count 15
attr interpolationmode none
attr source packetSentToLower
attr title "packets transmitted, count"
scalar CampusNetwork.B.ppp[0].ppp txPk:sum(packetBytes) 1.05e+003
attr interpolationmode none
attr source packetSentToLower
attr title "packets transmitted, sum(packetBytes)"
scalar CampusNetwork.B.ppp[0].ppp rcvdPkFromHl:count 15
attr interpolationmode none
attr source packetReceivedFromUpper
attr title "packets received from higher layer, count"
scalar CampusNetwork.B.ppp[0].ppp rcvdPkFromHl:sum(packetBytes) 946
attr interpolationmode none
attr source packetReceivedFromUpper
attr title "packets received from higher layer, sum(packetBytes)"
scalar CampusNetwork.B.ppp[0].ppp passedUpPk:count 16
attr interpolationmode none
attr source packetSentToUpper
attr title "packets passed to higher layer, count"
scalar CampusNetwork.B.ppp[0].ppp passedUpPk:sum(packetBytes) 1.12e+003
attr interpolationmode none
attr source packetSentToUpper
attr title "packets passed to higher layer, sum(packetBytes)"
scalar CampusNetwork.B.ppp[0].ppp packetDropIncorrectlyReceived:count 0
attr interpolationmode none
attr source packetDropReasonIsIncorrectlyReceived(packetDropped)
attr title "packet drop: incorrectly received, count"
scalar CampusNetwork.B.ppp[0].ppp packetDropIncorrectlyReceived:sum(packetBytes) 0
attr interpolationmode none
attr source packetDropReasonIsIncorrectlyReceived(packetDropped)
attr title "packet drop: incorrectly received, sum(packetBytes)"
scalar CampusNetwork.B.ppp[0].ppp packetDropInterfaceDown:count 0
attr interpolationmode none
attr source packetDropReasonIsInterfaceDown(packetDropped)
attr title "packet drop: interface down, count"
scalar CampusNetwork.B.ppp[0].ppp packetDropInterfaceDown:sum(packetBytes) 0
attr interpolationmode none
attr source packetDropReasonIsInterfaceDown(packetDropped)
attr title "packet drop: interface down, sum(packetBytes)"
scalar CampusNetwork.B.ppp[0].ppp rxPkOk:count 16
attr interpolationmode none
attr source rxPkOk
attr title "packets received OK, count"
scalar CampusNetwork.B.ppp[0].ppp rxPkOk:sum(packetBytes) 1.23e+003
attr interpolationmode none
attr source rxPkOk
attr title "packets received OK, sum(packetBytes)"
scalar CampusNetwork.B.ppp[0].ppp transmissionState:timeavg 8.41e-008
attr interpolationmode sample-hold
attr source transmissionStateChanged
attr title "tx state, timeavg"
scalar CampusNetwork.B.ppp[1].ppp.queue packetPopped:count 12
attr interpolationmode none
attr title "packet popped, count"
scalar CampusNetwork.B.ppp[1].ppp.queue packetPopped:sum(packetBytes) 1.06e+003
attr interpolationmode none
attr title "packet popped, sum(packetBytes)"
statistic CampusNetwork.B.ppp[1].ppp.queue queueingTime:histogram
field count 12
field mean 3.13e-007
field stddev 1.09e-006
field min 0
field max 3.76e-006
field sum 3.76e-006
field sqrsum 1.41e-011
attr interpolationmode none
attr source queueingTime(packetPopped)
attr title "queueing times, histogram"
attr unit s
bin	-inf	0
bin	0	11
bin	1e-007	0
bin	2e-007	0
bin	3e-007	0
bin	4e-007	0
bin	5e-007	0
bin	6e-007	0
bin	7e-007	0
bin	8e-007	0
bin	9e-007	0
bin	1e-006	0
bin	1.1e-006	0
bin	1.2e-006	0
bin	1.3e-006	0
bin	1.4e-006	0
bin	1.5e-006	0
bin	1.6e-006	0
bin	1.7e-006	0
bin	1.8e-006	0
bin	1.9e-006	0
bin	2e-006	0
bin	2.1e-006	0
bin	2.2e-006	0
bin	2.3e-006	0
bin	2.4e-006	0
bin	2.5e-006	0
bin	2.6e-006	0
bin	2.7e-006	0
bin	2.8e-006	0
bin	2.9e-006	0
bin	3e-006	0
bin	3.1e-006	0
bin	3.2e-006	0
bin	3.3e-006	0
bin	3.4e-006	0
bin	3.5e-006	0
bin	3.6e-006	0
bin	3.7e-006	1
bin	3.8e-006	0
bin	3.9e-006	0
bin	4e-006	0
bin	4.1e-006	0
bin	4.2e-006	0
bin	4.3e-006	0
bin	4.4e-006	0
bin	4.5e-006	0
bin	4.6e-006	0
bin	4.7e-006	0
scalar CampusNetwork.B.ppp[1].ppp.queue queueLength:max 1
attr interpolationmode sample-hold
attr source "count(packetPushed) - count(packetPopped) - count(packetRemoved) - count(packetDropped)"
attr title "queue length, max"
scalar CampusNetwork.B.ppp[1].ppp.queue queueLength:timeavg 3.83e-009
attr interpolationmode sample-hold
attr source "count(packetPushed) - count(packetPopped) - count(packetRemoved) - count(packetDropped)"
attr title "queue length, timeavg"
scalar CampusNetwork.B.ppp[1].ppp.queue packetPushed:count 12
attr interpolationmode none
attr title "packet pushed, count"
scalar CampusNetwork.B.ppp[1].ppp.queue packetPushed:sum(packetBytes) 1.06e+003
attr interpolationmode none
attr title "packet pushed, sum(packetBytes)"
scalar CampusNetwork.B.ppp[1].ppp.queue packetDropQueueOverflow:count 0
attr interpolationmode none
attr source packetDropReasonIsQueueOverflow(packetDropped)
attr title "packet drops: queue overflow, count"
scalar CampusNetwork.B.ppp[1].ppp.queue packetDropQueueOverflow:sum(packetBytes) 0
attr interpolationmode none
attr source packetDropReasonIsQueueOverflow(packetDropped)
attr title "packet drops: queue overflow, sum(packetBytes)"
scalar CampusNetwork.B.ppp[1].ppp.queue packetRemoved:count 0
attr interpolationmode none
attr title "packets removed, count"
scalar CampusNetwork.B.ppp[1].ppp.queue packetRemoved:sum(packetBytes) 0
attr interpolationmode none
attr title "packets removed, sum(packetBytes)"
scalar CampusNetwork.B.ppp[1].ppp txPk:count 12
attr interpolationmode none
attr source packetSentToLower
attr title "packets transmitted, count"
scalar CampusNetwork.B.ppp[1].ppp txPk:sum(packetBytes) 1.14e+003
attr interpolationmode none
attr source packetSentToLower
attr title "packets transmitted, sum(packetBytes)"
scalar CampusNetwork.B.ppp[1].ppp rcvdPkFromHl:count 12
attr interpolationmode none
attr source packetReceivedFromUpper
attr title "packets received from higher layer, count"
scalar CampusNetwork.B.ppp[1].ppp rcvdPkFromHl:sum(packetBytes) 1.06e+003
attr interpolationmode none
attr source packetReceivedFromUpper
attr title "packets received from higher layer, sum(packetBytes)"
scalar CampusNetwork.B.ppp[1].ppp passedUpPk:count 11
attr interpolationmode none
attr source packetSentToUpper
attr title "packets passed to higher layer, count"
scalar CampusNetwork.B.ppp[1].ppp passedUpPk:sum(packetBytes) 1.03e+003
attr interpolationmode none
attr source packetSentToUpper
attr title "packets passed to higher layer, sum(packetBytes)"
scalar CampusNetwork.B.ppp[1].ppp packetDropIncorrectlyReceived:count 0
attr interpolationmode none
attr source packetDropReasonIsIncorrectlyReceived(packetDropped)
attr title "packet drop: incorrectly received, count"
scalar CampusNetwork.B.ppp[1].ppp packetDropIncorrectlyReceived:sum(packetBytes) 0
attr interpolationmode none
attr source packetDropReasonIsIncorrectlyReceived(packetDropped)
attr title "packet drop: incorrectly received, sum(packetBytes)"
scalar CampusNetwork.B.ppp[1].ppp packetDropInterfaceDown:count 0
attr interpolationmode none
attr source packetDropReasonIsInterfaceDown(packetDropped)
attr title "packet drop: interface down, count"
scalar CampusNetwork.B.ppp[1].ppp packetDropInterfaceDown:sum(packetBytes) 0
attr interpolationmode none
attr source packetDropReasonIsInterfaceDown(packetDropped)
attr title "packet drop: interface down, sum(packetBytes)"
scalar CampusNetwork.B.ppp[1].ppp rxPkOk:count 11
attr interpolationmode none
attr source rxPkOk
attr title "packets received OK, count"
scalar CampusNetwork.B.ppp[1].ppp rxPkOk:sum(packetBytes) 1.11e+003
attr interpolationmode none
attr source rxPkOk
attr title "packets received OK, sum(packetBytes)"
scalar CampusNetwork.B.ppp[1].ppp transmissionState:timeavg 9.16e-008
attr interpolationmode sample-hold
attr source transmissionStateChanged
attr title "tx state, timeavg"
scalar CampusNetwork.B.ppp[2].ppp.queue packetPopped:count 603
attr interpolationmode none
attr title "packet popped, count"
scalar CampusNetwork.B.ppp[2].ppp.queue packetPopped:sum(packetBytes) 3.52e+004
attr interpolationmode none
attr title "packet popped, sum(packetBytes)"
statistic CampusNetwork.B.ppp[2].ppp.queue queueingTime:histogram
field count 603
field mean 3.56e-008
field stddev 5.82e-007
field min 0
field max 1.3e-005
field sum 2.14e-005
field sqrsum 2.04e-010
attr interpolationmode none
attr source queueingTime(packetPopped)
attr title "queueing times, histogram"
attr unit s
bin	-inf	0
bin	0	600
bin	2e-007	0
bin	4e-007	0
bin	6e-007	0
bin	8e-007	0
bin	1e-006	0
bin	1.2e-006	0
bin	1.4e-006	0
bin	1.6e-006	0
bin	1.8e-006	0
bin	2e-006	0
bin	2.2e-006	0
bin	2.4e-006	0
bin	2.6e-006	0
bin	2.8e-006	0
bin	3e-006	0
bin	3.2e-006	0
bin	3.4e-006	0
bin	3.6e-006	1
bin	3.8e-006	0
bin	4e-006	0
bin	4.2e-006	0
bin	4.4e-006	0
bin	4.6e-006	1
bin	4.8e-006	0
bin	5e-006	0
bin	5.2e-006	0
bin	5.4e-006	0
bin	5.6e-006	0
bin	5.8e-006	0
bin	6e-006	0
bin	6.2e-006	0
bin	6.4e-006	0
bin	6.6e-006	0
bin	6.8e-006	0
bin	7e-006	0
bin	7.2e-006	0
bin	7.4e-006	0
bin	7.6e-006	0
bin	7.8e-006	0
bin	8e-006	0
bin	8.2e-006	0
bin	8.4e-006	0
bin	8.6e-006	0
bin	8.8e-006	0
bin	9e-006	0
bin	9.2e-006	0
bin	9.4e-006	0
bin	9.6e-006	0
bin	9.8e-006	0
bin	1e-005	0
bin	1.02e-005	0
bin	1.04e-005	0
bin	1.06e-005	0
bin	1.08e-005	0
bin	1.1e-005	0
bin	1.12e-005	0
bin	1.14e-005	0
bin	1.16e-005	0
bin	1.18e-005	0
bin	1.2e-005	0
bin	1.22e-005	0
bin	1.24e-005	0
bin	1.26e-005	0
bin	1.28e-005	1
bin	1.3e-005	0
bin	1.32e-005	0
bin	1.34e-005	0
bin	1.36e-005	0
bin	1.38e-005	0
bin	1.4e-005	0
bin	1.42e-005	0
bin	1.44e-005	0
bin	1.46e-005	0
bin	1.48e-005	0
bin	1.5e-005	0
bin	1.52e-005	0
bin	1.54e-005	0
bin	1.56e-005	0
bin	1.58e-005	0
bin	1.6e-005	0
bin	1.62e-005	0
scalar CampusNetwork.B.ppp[2].ppp.queue queueLength:max 2
attr interpolationmode sample-hold
attr source "count(packetPushed) - count(packetPopped) - count(packetRemoved) - count(packetDropped)"
attr title "queue length, max"
scalar CampusNetwork.B.ppp[2].ppp.queue queueLength:timeavg 2.14e-008
attr interpolationmode sample-hold
attr source "count(packetPushed) - count(packetPopped) - count(packetRemoved) - count(packetDropped)"
attr title "queue length, timeavg"
scalar CampusNetwork.B.ppp[2].ppp.queue packetPushed:count 603
attr interpolationmode none
attr title "packet pushed, count"
scalar CampusNetwork.B.ppp[2].ppp.queue packetPushed:sum(packetBytes) 3.52e+004
attr interpolationmode none
attr title "packet pushed, sum(packetBytes)"
scalar CampusNetwork.B.ppp[2].ppp.queue packetDropQueueOverflow:count 0
attr interpolationmode none
attr source packetDropReasonIsQueueOverflow(packetDropped)
attr title "packet drops: queue overflow, count"
scalar CampusNetwork.B.ppp[2].ppp.queue packetDropQueueOverflow:sum(packetBytes) 0
attr interpolationmode none
attr source packetDropReasonIsQueueOverflow(packetDropped)
attr title "packet drops: queue overflow, sum(packetBytes)"
scalar CampusNetwork.B.ppp[2].ppp.queue packetRemoved:count 0
attr interpolationmode none
attr title "packets removed, count"
scalar CampusNetwork.B.ppp[2].ppp.queue packetRemoved:sum(packetBytes) 0
attr interpolationmode none
attr title "packets removed, sum(packetBytes)"
scalar CampusNetwork.B.ppp[2].ppp txPk:count 603
attr interpolationmode none
attr source packetSentToLower
attr title "packets transmitted, count"
scalar CampusNetwork.B.ppp[2].ppp txPk:sum(packetBytes) 3.94e+004
attr interpolationmode none
attr source packetSentToLower
attr title "packets transmitted, sum(packetBytes)"
scalar CampusNetwork.B.ppp[2].ppp rcvdPkFromHl:count 603
attr interpolationmode none
attr source packetReceivedFromUpper
attr title "packets received from higher layer, count"
scalar CampusNetwork.B.ppp[2].ppp rcvdPkFromHl:sum(packetBytes) 3.52e+004
attr interpolationmode none
attr source packetReceivedFromUpper
attr title "packets received from higher layer, sum(packetBytes)"
scalar CampusNetwork.B.ppp[2].ppp passedUpPk:count 608
attr interpolationmode none
attr source packetSentToUpper
attr title "packets passed to higher layer, count"
scalar CampusNetwork.B.ppp[2].ppp passedUpPk:sum(packetBytes) 3.76e+004
attr interpolationmode none
attr source packetSentToUpper
attr title "packets passed to higher layer, sum(packetBytes)"
scalar CampusNetwork.B.ppp[2].ppp packetDropIncorrectlyReceived:count 0
attr interpolationmode none
attr source packetDropReasonIsIncorrectlyReceived(packetDropped)
attr title "packet drop: incorrectly received, count"
scalar CampusNetwork.B.ppp[2].ppp packetDropIncorrectlyReceived:sum(packetBytes) 0
attr interpolationmode none
attr source packetDropReasonIsIncorrectlyReceived(packetDropped)
attr title "packet drop: incorrectly received, sum(packetBytes)"
scalar CampusNetwork.B.ppp[2].ppp packetDropInterfaceDown:count 0
attr interpolationmode none
attr source packetDropReasonIsInterfaceDown(packetDropped)
attr title "packet drop: interface down, count"
scalar CampusNetwork.B.ppp[2].ppp packetDropInterfaceDown:sum(packetBytes) 0
attr interpolationmode none
attr source packetDropReasonIsInterfaceDown(packetDropped)
attr title "packet drop: interface down, sum(packetBytes)"
scalar CampusNetwork.B.ppp[2].ppp rxPkOk:count 608
attr interpolationmode none
attr source rxPkOk
attr title "packets received OK, count"
scalar CampusNetwork.B.ppp[2].ppp rxPkOk:sum(packetBytes) 4.18e+004
attr interpolationmode none
attr source rxPkOk
attr title "packets received OK, sum(packetBytes)"
scalar CampusNetwork.B.ppp[2].ppp transmissionState:timeavg 3.16e-006
attr interpolationmode sample-hold
attr source transmissionStateChanged
attr title "tx state, timeavg"
scalar CampusNetwork.B.ppp[3].ppp.queue packetPopped:count 612
attr interpolationmode none
attr title "packet popped, count"
scalar CampusNetwork.B.ppp[3].ppp.queue packetPopped:sum(packetBytes) 3.59e+004
attr interpolationmode none
attr title "packet popped, sum(packetBytes)"
statistic CampusNetwork.B.ppp[3].ppp.queue queueingTime:histogram
field count 612
field mean 4.48e-008
field stddev 5.04e-007
field min 0
field max 7.6e-006
field sum 2.74e-005
field sqrsum 1.56e-010
attr interpolationmode none
attr source queueingTime(packetPopped)
attr title "queueing times, histogram"
attr unit s
bin	-inf	0
bin	0	607
bin	2e-007	0
bin	4e-007	0
bin	6e-007	0
bin	8e-007	0
bin	1e-006	0
bin	1.2e-006	0
bin	1.4e-006	0
bin	1.6e-006	0
bin	1.8e-006	0
bin	2e-006	0
bin	2.2e-006	0
bin	2.4e-006	0
bin	2.6e-006	0
bin	2.8e-006	0
bin	3e-006	0
bin	3.2e-006	0
bin	3.4e-006	0
bin	3.6e-006	0
bin	3.8e-006	0
bin	4e-006	0
bin	4.2e-006	0
bin	4.4e-006	0
bin	4.6e-006	1
bin	4.8e-006	0
bin	5e-006	3
bin	5.2e-006	0
bin	5.4e-006	0
bin	5.6e-006	0
bin	5.8e-006	0
bin	6e-006	0
bin	6.2e-006	0
bin	6.4e-006	0
bin	6.6e-006	0
bin	6.8e-006	0
bin	7e-006	0
bin	7.2e-006	0
bin	7.4e-006	1
bin	7.6e-006	0
bin	7.8e-006	0
bin	8e-006	0
bin	8.2e-006	0
bin	8.4e-006	0
bin	8.6e-006	0
bin	8.8e-006	0
bin	9e-006	0
bin	9.2e-006	0
bin	9.4e-006	0
bin	9.6e-006	0
scalar CampusNetwork.B.ppp[3].ppp.queue queueLength:max 1
attr interpolationmode sample-hold
attr source "count(packetPushed) - count(packetPopped) - count(packetRemoved) - count(packetDropped)"
attr title "queue length, max"
scalar CampusNetwork.B.ppp[3].ppp.queue queueLength:timeavg 2.74e-008
attr interpolationmode sample-hold
attr source "count(packetPushed) - count(packetPopped) - count(packetRemoved) - count(packetDropped)"
attr title "queue length, timeavg"
scalar CampusNetwork.B.ppp[3].ppp.queue packetPushed:count 612
attr interpolationmode none
attr title "packet pushed, count"
scalar CampusNetwork.B.ppp[3].ppp.queue packetPushed:sum(packetBytes) 3.59e+004
attr interpolationmode none
attr title "packet pushed, sum(packetBytes)"
scalar CampusNetwork.B.ppp[3].ppp.queue packetDropQueueOverflow:count 0
attr interpolationmode none
attr source packetDropReasonIsQueueOverflow(packetDropped)
attr title "packet drops: queue overflow, count"
scalar CampusNetwork.B.ppp[3].ppp.queue packetDropQueueOverflow:sum(packetBytes) 0
attr interpolationmode none
attr source packetDropReasonIsQueueOverflow(packetDropped)
attr title "packet drops: queue overflow, sum(packetBytes)"
scalar CampusNetwork.B.ppp[3].ppp.queue packetRemoved:count 0
attr interpolationmode none
attr title "packets removed, count"
scalar CampusNetwork.B.ppp[3].ppp.queue packetRemoved:sum(packetBytes) 0
attr interpolationmode none
attr title "packets removed, sum(packetBytes)"
scalar CampusNetwork.B.ppp[3].ppp txPk:count 612
attr interpolationmode none
attr source packetSentToLower
attr title "packets transmitted, count"
scalar CampusNetwork.B.ppp[3].ppp txPk:sum(packetBytes) 4.01e+004
attr interpolationmode none
attr source packetSentToLower
attr title "packets transmitted, sum(packetBytes)"
scalar CampusNetwork.B.ppp[3].ppp rcvdPkFromHl:count 612
attr interpolationmode none
attr source packetReceivedFromUpper
attr title "packets received from higher layer, count"
scalar CampusNetwork.B.ppp[3].ppp rcvdPkFromHl:sum(packetBytes) 3.59e+004
attr interpolationmode none
attr source packetReceivedFromUpper
attr title "packets received from higher layer, sum(packetBytes)"
scalar CampusNetwork.B.ppp[3].ppp passedUpPk:count 614
attr interpolationmode none
attr source packetSentToUpper
attr title "packets passed to higher layer, count"
scalar CampusNetwork.B.ppp[3].ppp passedUpPk:sum(packetBytes) 3.79e+004
attr interpolationmode none
attr source packetSentToUpper
attr title "packets passed to higher layer, sum(packetBytes)"
scalar CampusNetwork.B.ppp[3].ppp packetDropIncorrectlyReceived:count 0
attr interpolationmode none
attr source packetDropReasonIsIncorrectlyReceived(packetDropped)
attr title "packet drop: incorrectly received, count"
scalar CampusNetwork.B.ppp[3].ppp packetDropIncorrectlyReceived:sum(packetBytes) 0
attr interpolationmode none
attr source packetDropReasonIsIncorrectlyReceived(packetDropped)
attr title "packet drop: incorrectly received, sum(packetBytes)"
scalar CampusNetwork.B.ppp[3].ppp packetDropInterfaceDown:count 0
attr interpolationmode none
attr source packetDropReasonIsInterfaceDown(packetDropped)
attr title "packet drop: interface down, count"
scalar CampusNetwork.B.ppp[3].ppp packetDropInterfaceDown:sum(packetBytes) 0
attr interpolationmode none
attr source packetDropReasonIsInterfaceDown(packetDropped)
attr title "packet drop: interface down, sum(packetBytes)"
scalar CampusNetwork.B.ppp[3].ppp rxPkOk:count 614
attr interpolationmode none
attr source rxPkOk
attr title "packets received OK, count"
scalar CampusNetwork.B.ppp[3].ppp rxPkOk:sum(packetBytes) 4.22e+004
attr interpolationmode none
attr source rxPkOk
attr title "packets received OK, sum(packetBytes)"
scalar CampusNetwork.B.ppp[3].ppp transmissionState:timeavg 3.21e-006
attr interpolationmode sample-hold
attr source transmissionStateChanged
attr title "tx state, timeavg"
scalar CampusNetwork.B.ppp[4].ppp.queue packetPopped:count 0
attr interpolationmode none
attr title "packet popped, count"
scalar CampusNetwork.B.ppp[4].ppp.queue packetPopped:sum(packetBytes) 0
attr interpolationmode none
attr title "packet popped, sum(packetBytes)"
statistic CampusNetwork.B.ppp[4].ppp.queue queueingTime:histogram
field count 0
field mean nan
field stddev nan
field min nan
field max nan
field sum 0
field sqrsum 0
attr interpolationmode none
attr source queueingTime(packetPopped)
attr title "queueing times, histogram"
attr unit s
bin	-inf	0
bin	0	0
bin	1	0
scalar CampusNetwork.B.ppp[4].ppp.queue queueLength:max nan
attr interpolationmode sample-hold
attr source "count(packetPushed) - count(packetPopped) - count(packetRemoved) - count(packetDropped)"
attr title "queue length, max"
scalar CampusNetwork.B.ppp[4].ppp.queue queueLength:timeavg nan
attr interpolationmode sample-hold
attr source "count(packetPushed) - count(packetPopped) - count(packetRemoved) - count(packetDropped)"
attr title "queue length, timeavg"
scalar CampusNetwork.B.ppp[4].ppp.queue packetPushed:count 0
attr interpolationmode none
attr title "packet pushed, count"
scalar CampusNetwork.B.ppp[4].ppp.queue packetPushed:sum(packetBytes) 0
attr interpolationmode none
attr title "packet pushed, sum(packetBytes)"
scalar CampusNetwork.B.ppp[4].ppp.queue packetDropQueueOverflow:count 0
attr interpolationmode none
attr source packetDropReasonIsQueueOverflow(packetDropped)
attr title "packet drops: queue overflow, count"
scalar CampusNetwork.B.ppp[4].ppp.queue packetDropQueueOverflow:sum(packetBytes) 0
attr interpolationmode none
attr source packetDropReasonIsQueueOverflow(packetDropped)
attr title "packet drops: queue overflow, sum(packetBytes)"
scalar CampusNetwork.B.ppp[4].ppp.queue packetRemoved:count 0
attr interpolationmode none
attr title "packets removed, count"
scalar CampusNetwork.B.ppp[4].ppp.queue packetRemoved:sum(packetBytes) 0
attr interpolationmode none
attr title "packets removed, sum(packetBytes)"
scalar CampusNetwork.B.ppp[4].ppp txPk:count 0
attr interpolationmode none
attr source packetSentToLower
attr title "packets transmitted, count"
scalar CampusNetwork.B.ppp[4].ppp txPk:sum(packetBytes) 0
attr interpolationmode none
attr source packetSentToLower
attr title "packets transmitted, sum(packetBytes)"
scalar CampusNetwork.B.ppp[4].ppp rcvdPkFromHl:count 0
attr interpolationmode none
attr source packetReceivedFromUpper
attr title "packets received from higher layer, count"
scalar CampusNetwork.B.ppp[4].ppp rcvdPkFromHl:sum(packetBytes) 0
attr interpolationmode none
attr source packetReceivedFromUpper
attr title "packets received from higher layer, sum(packetBytes)"
scalar CampusNetwork.B.ppp[4].ppp passedUpPk:count 599
attr interpolationmode none
attr source packetSentToUpper
attr title "packets passed to higher layer, count"
scalar CampusNetwork.B.ppp[4].ppp passedUpPk:sum(packetBytes) 3.63e+004
attr interpolationmode none
attr source packetSentToUpper
attr title "packets passed to higher layer, sum(packetBytes)"
scalar CampusNetwork.B.ppp[4].ppp packetDropIncorrectlyReceived:count 0
attr interpolationmode none
attr source packetDropReasonIsIncorrectlyReceived(packetDropped)
attr title "packet drop: incorrectly received, count"
scalar CampusNetwork.B.ppp[4].ppp packetDropIncorrectlyReceived:sum(packetBytes) 0
attr interpolationmode none
attr source packetDropReasonIsIncorrectlyReceived(packetDropped)
attr title "packet drop: incorrectly received, sum(packetBytes)"
scalar CampusNetwork.B.ppp[4].ppp packetDropInterfaceDown:count 0
attr interpolationmode none
attr source packetDropReasonIsInterfaceDown(packetDropped)
attr title "packet drop: interface down, count"
scalar CampusNetwork.B.ppp[4].ppp packetDropInterfaceDown:sum(packetBytes) 0
attr interpolationmode none
attr source packetDropReasonIsInterfaceDown(packetDropped)
attr title "packet drop: interface down, sum(packetBytes)"
scalar CampusNetwork.B.ppp[4].ppp rxPkOk:count 599
attr interpolationmode none
attr source rxPkOk
attr title "packets received OK, count"
scalar CampusNetwork.B.ppp[4].ppp rxPkOk:sum(packetBytes) 4.05e+004
attr interpolationmode none
attr source rxPkOk
attr title "packets received OK, sum(packetBytes)"
scalar CampusNetwork.B.ppp[4].ppp transmissionState:timeavg 0
attr interpolationmode sample-hold
attr source transmissionStateChanged
attr title "tx state, timeavg"
scalar CampusNetwork.B.ipv4.ip packetDropAddressResolutionFailed:count 0
attr interpolationmode none
attr source packetDropReasonIsAddressResolutionFailed(packetDropped)
attr title "packet drop: address resolution failed, count"
scalar CampusNetwork.B.ipv4.ip packetDropAddressResolutionFailed:sum(packetBytes) 0
attr interpolationmode none
attr source packetDropReasonIsAddressResolutionFailed(packetDropped)
attr title "packet drop: address resolution failed, sum(packetBytes)"
scalar CampusNetwork.B.ipv4.ip packetDropHopLimitReached:count 0
attr interpolationmode none
attr source packetDropReasonIsHopLimitReached(packetDropped)
attr title "packet drop: hop limit reached, count"
scalar CampusNetwork.B.ipv4.ip packetDropHopLimitReached:sum(packetBytes) 0
attr interpolationmode none
attr source packetDropReasonIsHopLimitReached(packetDropped)
attr title "packet drop: hop limit reached, sum(packetBytes)"
scalar CampusNetwork.B.ipv4.ip packetDropForwardingDisabled:count 0
attr interpolationmode none
attr source packetDropReasonIsForwardingDisabled(packetDropped)
attr title "packet drop: forwarding disabled, count"
scalar CampusNetwork.B.ipv4.ip packetDropForwardingDisabled:sum(packetBytes) 0
attr interpolationmode none
attr source packetDropReasonIsForwardingDisabled(packetDropped)
attr title "packet drop: forwarding disabled, sum(packetBytes)"
scalar CampusNetwork.B.ipv4.ip packetDropNoInterfaceFound:count 0
attr interpolationmode none
attr source packetDropReasonIsNoInterfaceFound(packetDropped)
attr title "packet drop: no interface found, count"
scalar CampusNetwork.B.ipv4.ip packetDropNoInterfaceFound:sum(packetBytes) 0
attr interpolationmode none
attr source packetDropReasonIsNoInterfaceFound(packetDropped)
attr title "packet drop: no interface found, sum(packetBytes)"
scalar CampusNetwork.B.ipv4.ip packetDropNoRouteFound:count 1e+003
attr interpolationmode none
attr source packetDropReasonIsNoRouteFound(packetDropped)
attr title "packet drop: no route found, count"
scalar CampusNetwork.B.ipv4.ip packetDropNoRouteFound:sum(packetBytes) 6.01e+004
attr interpolationmode none
attr source packetDropReasonIsNoRouteFound(packetDropped)
attr title "packet drop: no route found, sum(packetBytes)"
scalar CampusNetwork.B.ipv4.ip packetDropUndefined:count 0
attr interpolationmode none
attr source packetDropReasonIsUndefined(packetDropped)
attr title "packet drop: undefined, count"
scalar CampusNetwork.B.ipv4.ip packetDropUndefined:sum(packetBytes) 0
attr interpolationmode none
attr source packetDropReasonIsUndefined(packetDropped)
attr title "packet drop: undefined, sum(packetBytes)"
scalar CampusNetwork.B.ipv4.arp arpReplySent:count 0
attr source arpReplySent
attr title "ARP replies sent, count"
scalar CampusNetwork.B.ipv4.arp arpReplySent:sum(packetBytes) 0
attr source arpReplySent
attr title "ARP replies sent, sum(packetBytes)"
scalar CampusNetwork.B.ipv4.arp arpRequestSent:count 0
attr source arpRequestSent
attr title "ARP request sent, count"
scalar CampusNetwork.B.ipv4.arp arpRequestSent:sum(packetBytes) 0
attr source arpRequestSent
attr title "ARP request sent, sum(packetBytes)"
scalar CampusNetwork.B.ipv4.arp arpResolutionFailed:count 0
attr title "ARP failed resolutions, count"
scalar CampusNetwork.B.ipv4.arp arpResolutionCompleted:count 0
attr title "ARP completed resolutions, count"
scalar CampusNetwork.B.ipv4.arp arpResolutionInitiated:count 0
attr title "ARP initiated resolutions, count"
scalar CampusNetwork.B.bgp OPENMsgSent 2
scalar CampusNetwork.B.bgp OPENMsgRecv 2
scalar CampusNetwork.B.bgp KeepAliveMsgSent 4
scalar CampusNetwork.B.bgp KeepAliveMsgRcv 4
scalar CampusNetwork.B.bgp UpdateMsgSent 17
scalar CampusNetwork.B.bgp UpdateMsgRcv 20
scalar CampusNetwork.C.lo[0].lo rcvdPkFromHl:count 0
attr interpolationmode none
attr source packetReceivedFromUpper
attr title "packets received from higher layer, count"
scalar CampusNetwork.C.lo[0].lo rcvdPkFromHl:sum(packetBytes) 0
attr interpolationmode none
attr source packetReceivedFromUpper
attr title "packets received from higher layer, sum(packetBytes)"
scalar CampusNetwork.C.lo[0].lo passedUpPk:count 0
attr interpolationmode none
attr source packetSentToUpper
attr title "packets passed to higher layer, count"
scalar CampusNetwork.C.lo[0].lo passedUpPk:sum(packetBytes) 0
attr interpolationmode none
attr source packetSentToUpper
attr title "packets passed to higher layer, sum(packetBytes)"
scalar CampusNetwork.C.ppp[0].ppp.queue packetPopped:count 13
attr interpolationmode none
attr title "packet popped, count"
scalar CampusNetwork.C.ppp[0].ppp.queue packetPopped:sum(packetBytes) 870
attr interpolationmode none
attr title "packet popped, sum(packetBytes)"
statistic CampusNetwork.C.ppp[0].ppp.queue queueingTime:histogram
field count 13
field mean 0
field stddev 0
field min 0
field max 0
field sum 0
field sqrsum 0
attr interpolationmode none
attr source queueingTime(packetPopped)
attr title "queueing times, histogram"
attr unit s
bin	-inf	0
bin	-0.5	0
bin	-0.48	0
bin	-0.46	0
bin	-0.44	0
bin	-0.42	0
bin	-0.4	0
bin	-0.38	0
bin	-0.36	0
bin	-0.34	0
bin	-0.32	0
bin	-0.3	0
bin	-0.28	0
bin	-0.26	0
bin	-0.24	0
bin	-0.22	0
bin	-0.2	0
bin	-0.18	0
bin	-0.16	0
bin	-0.14	0
bin	-0.12	0
bin	-0.1	0
bin	-0.08	0
bin	-0.06	0
bin	-0.04	0
bin	-0.02	0
bin	0	13
bin	0.02	0
bin	0.04	0
bin	0.06	0
bin	0.08	0
bin	0.1	0
bin	0.12	0
bin	0.14	0
bin	0.16	0
bin	0.18	0
bin	0.2	0
bin	0.22	0
bin	0.24	0
bin	0.26	0
bin	0.28	0
bin	0.3	0
bin	0.32	0
bin	0.34	0
bin	0.36	0
bin	0.38	0
bin	0.4	0
bin	0.42	0
bin	0.44	0
bin	0.46	0
bin	0.48	0
bin	0.5	0
scalar CampusNetwork.C.ppp[0].ppp.queue queueLength:max 1
attr interpolationmode sample-hold
attr source "count(packetPushed) - count(packetPopped) - count(packetRemoved) - count(packetDropped)"
attr title "queue length, max"
scalar CampusNetwork.C.ppp[0].ppp.queue queueLength:timeavg 0
attr interpolationmode sample-hold
attr source "count(packetPushed) - count(packetPopped) - count(packetRemoved) - count(packetDropped)"
attr title "queue length, timeavg"
scalar CampusNetwork.C.ppp[0].ppp.queue packetPushed:count 13
attr interpolationmode none
attr title "packet pushed, count"
scalar CampusNetwork.C.ppp[0].ppp.queue packetPushed:sum(packetBytes) 870
attr interpolationmode none
attr title "packet pushed, sum(packetBytes)"
scalar CampusNetwork.C.ppp[0].ppp.queue packetDropQueueOverflow:count 0
attr interpolationmode none
attr source packetDropReasonIsQueueOverflow(packetDropped)
attr title "packet drops: queue overflow, count"
scalar CampusNetwork.C.ppp[0].ppp.queue packetDropQueueOverflow:sum(packetBytes) 0
attr interpolationmode none
attr source packetDropReasonIsQueueOverflow(packetDropped)
attr title "packet drops: queue overflow, sum(packetBytes)"
scalar CampusNetwork.C.ppp[0].ppp.queue packetRemoved:count 0
attr interpolationmode none
attr title "packets removed, count"
scalar CampusNetwork.C.ppp[0].ppp.queue packetRemoved:sum(packetBytes) 0
attr interpolationmode none
attr title "packets removed, sum(packetBytes)"
scalar CampusNetwork.C.ppp[0].ppp txPk:count 13
attr interpolationmode none
attr source packetSentToLower
attr title "packets transmitted, count"
scalar CampusNetwork.C.ppp[0].ppp txPk:sum(packetBytes) 961
attr interpolationmode none
attr source packetSentToLower
attr title "packets transmitted, sum(packetBytes)"
scalar CampusNetwork.C.ppp[0].ppp rcvdPkFromHl:count 13
attr interpolationmode none
attr source packetReceivedFromUpper
attr title "packets received from higher layer, count"
scalar CampusNetwork.C.ppp[0].ppp rcvdPkFromHl:sum(packetBytes) 870
attr interpolationmode none
attr source packetReceivedFromUpper
attr title "packets received from higher layer, sum(packetBytes)"
scalar CampusNetwork.C.ppp[0].ppp passedUpPk:count 1.49e+003
attr interpolationmode none
attr source packetSentToUpper
attr title "packets passed to higher layer, count"
scalar CampusNetwork.C.ppp[0].ppp passedUpPk:sum(packetBytes) 8.94e+004
attr interpolationmode none
attr source packetSentToUpper
attr title "packets passed to higher layer, sum(packetBytes)"
scalar CampusNetwork.C.ppp[0].ppp packetDropIncorrectlyReceived:count 0
attr interpolationmode none
attr source packetDropReasonIsIncorrectlyReceived(packetDropped)
attr title "packet drop: incorrectly received, count"
scalar CampusNetwork.C.ppp[0].ppp packetDropIncorrectlyReceived:sum(packetBytes) 0
attr interpolationmode none
attr source packetDropReasonIsIncorrectlyReceived(packetDropped)
attr title "packet drop: incorrectly received, sum(packetBytes)"
scalar CampusNetwork.C.ppp[0].ppp packetDropInterfaceDown:count 0
attr interpolationmode none
attr source packetDropReasonIsInterfaceDown(packetDropped)
attr title "packet drop: interface down, count"
scalar CampusNetwork.C.ppp[0].ppp packetDropInterfaceDown:sum(packetBytes) 0
attr interpolationmode none
attr source packetDropReasonIsInterfaceDown(packetDropped)
attr title "packet drop: interface down, sum(packetBytes)"
scalar CampusNetwork.C.ppp[0].ppp rxPkOk:count 1.49e+003
attr interpolationmode none
attr source rxPkOk
attr title "packets received OK, count"
scalar CampusNetwork.C.ppp[0].ppp rxPkOk:sum(packetBytes) 9.98e+004
attr interpolationmode none
attr source rxPkOk
attr title "packets received OK, sum(packetBytes)"
scalar CampusNetwork.C.ppp[0].ppp transmissionState:timeavg 7.69e-008
attr interpolationmode sample-hold
attr source transmissionStateChanged
attr title "tx state, timeavg"
scalar CampusNetwork.C.ppp[1].ppp.queue packetPopped:count 11
attr interpolationmode none
attr title "packet popped, count"
scalar CampusNetwork.C.ppp[1].ppp.queue packetPopped:sum(packetBytes) 1.03e+003
attr interpolationmode none
attr title "packet popped, sum(packetBytes)"
statistic CampusNetwork.C.ppp[1].ppp.queue queueingTime:histogram
field count 11
field mean 2.91e-008
field stddev 9.65e-008
field min 0
field max 3.2e-007
field sum 3.2e-007
field sqrsum 1.02e-013
attr interpolationmode none
attr source queueingTime(packetPopped)
attr title "queueing times, histogram"
attr unit s
bin	-inf	0
bin	0	10
bin	5e-009	0
bin	1e-008	0
bin	1.5e-008	0
bin	2e-008	0
bin	2.5e-008	0
bin	3e-008	0
bin	3.5e-008	0
bin	4e-008	0
bin	4.5e-008	0
bin	5e-008	0
bin	5.5e-008	0
bin	6e-008	0
bin	6.5e-008	0
bin	7e-008	0
bin	7.5e-008	0
bin	8e-008	0
bin	8.5e-008	0
bin	9e-008	0
bin	9.5e-008	0
bin	1e-007	0
bin	1.05e-007	0
bin	1.1e-007	0
bin	1.15e-007	0
bin	1.2e-007	0
bin	1.25e-007	0
bin	1.3e-007	0
bin	1.35e-007	0
bin	1.4e-007	0
bin	1.45e-007	0
bin	1.5e-007	0
bin	1.55e-007	0
bin	1.6e-007	0
bin	1.65e-007	0
bin	1.7e-007	0
bin	1.75e-007	0
bin	1.8e-007	0
bin	1.85e-007	0
bin	1.9e-007	0
bin	1.95e-007	0
bin	2e-007	0
bin	2.05e-007	0
bin	2.1e-007	0
bin	2.15e-007	0
bin	2.2e-007	0
bin	2.25e-007	0
bin	2.3e-007	0
bin	2.35e-007	0
bin	2.4e-007	0
bin	2.45e-007	0
bin	2.5e-007	0
bin	2.55e-007	0
bin	2.6e-007	0
bin	2.65e-007	0
bin	2.7e-007	0
bin	2.75e-007	0
bin	2.8e-007	0
bin	2.85e-007	0
bin	2.9e-007	0
bin	2.95e-007	0
bin	3e-007	0
bin	3.05e-007	0
bin	3.1e-007	0
bin	3.15e-007	1
bin	3.2e-007	0
bin	3.25e-007	0
bin	3.3e-007	0
bin	3.35e-007	0
bin	3.4e-007	0
bin	3.45e-007	0
bin	3.5e-007	0
bin	3.55e-007	0
bin	3.6e-007	0
bin	3.65e-007	0
bin	3.7e-007	0
bin	3.75e-007	0
bin	3.8e-007	0
bin	3.85e-007	0
bin	3.9e-007	0
bin	3.95e-007	0
bin	4e-007	0
scalar CampusNetwork.C.ppp[1].ppp.queue queueLength:max 1
attr interpolationmode sample-hold
attr source "count(packetPushed) - count(packetPopped) - count(packetRemoved) - count(packetDropped)"
attr title "queue length, max"
scalar CampusNetwork.C.ppp[1].ppp.queue queueLength:timeavg 3.26e-010
attr interpolationmode sample-hold
attr source "count(packetPushed) - count(packetPopped) - count(packetRemoved) - count(packetDropped)"
attr title "queue length, timeavg"
scalar CampusNetwork.C.ppp[1].ppp.queue packetPushed:count 11
attr interpolationmode none
attr title "packet pushed, count"
scalar CampusNetwork.C.ppp[1].ppp.queue packetPushed:sum(packetBytes) 1.03e+003
attr interpolationmode none
attr title "packet pushed, sum(packetBytes)"
scalar CampusNetwork.C.ppp[1].ppp.queue packetDropQueueOverflow:count 0
attr interpolationmode none
attr source packetDropReasonIsQueueOverflow(packetDropped)
[...]
attr title "packet pushed, count"
scalar CampusNetwork.RA5.ppp[0].ppp.queue packetPushed:sum(packetBytes) 3.63e+004
attr interpolationmode none
attr title "packet pushed, sum(packetBytes)"
scalar CampusNetwork.RA5.ppp[0].ppp.queue packetDropQueueOverflow:count 0
attr interpolationmode none
attr source packetDropReasonIsQueueOverflow(packetDropped)
attr title "packet drops: queue overflow, count"
scalar CampusNetwork.RA5.ppp[0].ppp.queue packetDropQueueOverflow:sum(packetBytes) 0
attr interpolationmode none
attr source packetDropReasonIsQueueOverflow(packetDropped)
attr title "packet drops: queue overflow, sum(packetBytes)"
scalar CampusNetwork.RA5.ppp[0].ppp.queue packetRemoved:count 0
attr interpolationmode none
attr title "packets removed, count"
scalar CampusNetwork.RA5.ppp[0].ppp.queue packetRemoved:sum(packetBytes) 0
attr interpolationmode none
attr title "packets removed, sum(packetBytes)"
scalar CampusNetwork.RA5.ppp[0].ppp txPk:count 599
attr interpolationmode none
attr source packetSentToLower
attr title "packets transmitted, count"
scalar CampusNetwork.RA5.ppp[0].ppp txPk:sum(packetBytes) 4.05e+004
attr interpolationmode none
attr source packetSentToLower
attr title "packets transmitted, sum(packetBytes)"
scalar CampusNetwork.RA5.ppp[0].ppp rcvdPkFromHl:count 599
attr interpolationmode none
attr source packetReceivedFromUpper
attr title "packets received from higher layer, count"
scalar CampusNetwork.RA5.ppp[0].ppp rcvdPkFromHl:sum(packetBytes) 3.63e+004
attr interpolationmode none
attr source packetReceivedFromUpper
attr title "packets received from higher layer, sum(packetBytes)"
scalar CampusNetwork.RA5.ppp[0].ppp passedUpPk:count 0
attr interpolationmode none
attr source packetSentToUpper
attr title "packets passed to higher layer, count"
scalar CampusNetwork.RA5.ppp[0].ppp passedUpPk:sum(packetBytes) 0
attr interpolationmode none
attr source packetSentToUpper
attr title "packets passed to higher layer, sum(packetBytes)"
scalar CampusNetwork.RA5.ppp[0].ppp packetDropIncorrectlyReceived:count 0
attr interpolationmode none
attr source packetDropReasonIsIncorrectlyReceived(packetDropped)
attr title "packet drop: incorrectly received, count"
scalar CampusNetwork.RA5.ppp[0].ppp packetDropIncorrectlyReceived:sum(packetBytes) 0
attr interpolationmode none
attr source packetDropReasonIsIncorrectlyReceived(packetDropped)
attr title "packet drop: incorrectly received, sum(packetBytes)"
scalar CampusNetwork.RA5.ppp[0].ppp packetDropInterfaceDown:count 0
attr interpolationmode none
attr source packetDropReasonIsInterfaceDown(packetDropped)
attr title "packet drop: interface down, count"
scalar CampusNetwork.RA5.ppp[0].ppp packetDropInterfaceDown:sum(packetBytes) 0
attr interpolationmode none
attr source packetDropReasonIsInterfaceDown(packetDropped)
attr title "packet drop: interface down, sum(packetBytes)"
scalar CampusNetwork.RA5.ppp[0].ppp rxPkOk:count 0
attr interpolationmode none
attr source rxPkOk
attr title "packets received OK, count"
scalar CampusNetwork.RA5.ppp[0].ppp rxPkOk:sum(packetBytes) 0
attr interpolationmode none
attr source rxPkOk
attr title "packets received OK, sum(packetBytes)"
scalar CampusNetwork.RA5.ppp[0].ppp transmissionState:timeavg 3.24e-006
attr interpolationmode sample-hold
attr source transmissionStateChanged
attr title "tx state, timeavg"
scalar CampusNetwork.RA5.eth[0].mac.queue.classifier packetPushed:count 9
attr interpolationmode none
attr title "packets pushed, count"
scalar CampusNetwork.RA5.eth[0].mac.queue.classifier packetPushed:sum(packetBytes) 576
attr interpolationmode none
attr title "packets pushed, sum(packetBytes)"
scalar CampusNetwork.RA5.eth[0].mac.queue.classifier packetDropped:count 0
attr interpolationmode none
attr title "packets dropped, count"
scalar CampusNetwork.RA5.eth[0].mac.queue.classifier packetDropped:sum(packetBytes) 0
attr interpolationmode none
attr title "packets dropped, sum(packetBytes)"
scalar CampusNetwork.RA5.eth[0].mac.queue.pauseQueue packetPopped:count 0
attr interpolationmode none
attr title "packet popped, count"
scalar CampusNetwork.RA5.eth[0].mac.queue.pauseQueue packetPopped:sum(packetBytes) 0
attr interpolationmode none
attr title "packet popped, sum(packetBytes)"
statistic CampusNetwork.RA5.eth[0].mac.queue.pauseQueue queueingTime:histogram
field count 0
field mean nan
field stddev nan
field min nan
field max nan
field sum 0
field sqrsum 0
attr interpolationmode none
attr source queueingTime(packetPopped)
attr title "queueing times, histogram"
attr unit s
bin	-inf	0
bin	0	0
bin	1	0
scalar CampusNetwork.RA5.eth[0].mac.queue.pauseQueue queueLength:max nan
attr interpolationmode sample-hold
attr source "count(packetPushed) - count(packetPopped) - count(packetRemoved) - count(packetDropped)"
attr title "queue length, max"
scalar CampusNetwork.RA5.eth[0].mac.queue.pauseQueue queueLength:timeavg nan
attr interpolationmode sample-hold
attr source "count(packetPushed) - count(packetPopped) - count(packetRemoved) - count(packetDropped)"
attr title "queue length, timeavg"
scalar CampusNetwork.RA5.eth[0].mac.queue.pauseQueue packetPushed:count 0
attr interpolationmode none
attr title "packet pushed, count"
scalar CampusNetwork.RA5.eth[0].mac.queue.pauseQueue packetPushed:sum(packetBytes) 0
attr interpolationmode none
attr title "packet pushed, sum(packetBytes)"
scalar CampusNetwork.RA5.eth[0].mac.queue.pauseQueue packetDropQueueOverflow:count 0
attr interpolationmode none
attr source packetDropReasonIsQueueOverflow(packetDropped)
attr title "packet drops: queue overflow, count"
scalar CampusNetwork.RA5.eth[0].mac.queue.pauseQueue packetDropQueueOverflow:sum(packetBytes) 0
attr interpolationmode none
attr source packetDropReasonIsQueueOverflow(packetDropped)
attr title "packet drops: queue overflow, sum(packetBytes)"
scalar CampusNetwork.RA5.eth[0].mac.queue.pauseQueue packetRemoved:count 0
attr interpolationmode none
attr title "packets removed, count"
scalar CampusNetwork.RA5.eth[0].mac.queue.pauseQueue packetRemoved:sum(packetBytes) 0
attr interpolationmode none
attr title "packets removed, sum(packetBytes)"
scalar CampusNetwork.RA5.eth[0].mac.queue.dataQueue packetPopped:count 9
attr interpolationmode none
attr title "packet popped, count"
scalar CampusNetwork.RA5.eth[0].mac.queue.dataQueue packetPopped:sum(packetBytes) 576
attr interpolationmode none
attr title "packet popped, sum(packetBytes)"
statistic CampusNetwork.RA5.eth[0].mac.queue.dataQueue queueingTime:histogram
field count 9
field mean 0
field stddev 0
field min 0
field max 0
field sum 0
field sqrsum 0
attr interpolationmode none
attr source queueingTime(packetPopped)
attr title "queueing times, histogram"
attr unit s
bin	-inf	0
bin	-0.5	0
bin	-0.48	0
bin	-0.46	0
bin	-0.44	0
bin	-0.42	0
bin	-0.4	0
bin	-0.38	0
bin	-0.36	0
bin	-0.34	0
bin	-0.32	0
bin	-0.3	0
bin	-0.28	0
bin	-0.26	0
bin	-0.24	0
bin	-0.22	0
bin	-0.2	0
bin	-0.18	0
bin	-0.16	0
bin	-0.14	0
bin	-0.12	0
bin	-0.1	0
bin	-0.08	0
bin	-0.06	0
bin	-0.04	0
bin	-0.02	0
bin	0	9
bin	0.02	0
bin	0.04	0
bin	0.06	0
bin	0.08	0
bin	0.1	0
bin	0.12	0
bin	0.14	0
bin	0.16	0
bin	0.18	0
bin	0.2	0
bin	0.22	0
bin	0.24	0
bin	0.26	0
bin	0.28	0
bin	0.3	0
bin	0.32	0
bin	0.34	0
bin	0.36	0
bin	0.38	0
bin	0.4	0
bin	0.42	0
bin	0.44	0
bin	0.46	0
bin	0.48	0
bin	0.5	0
scalar CampusNetwork.RA5.eth[0].mac.queue.dataQueue queueLength:max 1
attr interpolationmode sample-hold
attr source "count(packetPushed) - count(packetPopped) - count(packetRemoved) - count(packetDropped)"
attr title "queue length, max"
scalar CampusNetwork.RA5.eth[0].mac.queue.dataQueue queueLength:timeavg 0
attr interpolationmode sample-hold
attr source "count(packetPushed) - count(packetPopped) - count(packetRemoved) - count(packetDropped)"
attr title "queue length, timeavg"
scalar CampusNetwork.RA5.eth[0].mac.queue.dataQueue packetPushed:count 9
attr interpolationmode none
attr title "packet pushed, count"
scalar CampusNetwork.RA5.eth[0].mac.queue.dataQueue packetPushed:sum(packetBytes) 576
attr interpolationmode none
attr title "packet pushed, sum(packetBytes)"
scalar CampusNetwork.RA5.eth[0].mac.queue.dataQueue packetDropQueueOverflow:count 0
attr interpolationmode none
attr source packetDropReasonIsQueueOverflow(packetDropped)
attr title "packet drops: queue overflow, count"
scalar CampusNetwork.RA5.eth[0].mac.queue.dataQueue packetDropQueueOverflow:sum(packetBytes) 0
attr interpolationmode none
attr source packetDropReasonIsQueueOverflow(packetDropped)
attr title "packet drops: queue overflow, sum(packetBytes)"
scalar CampusNetwork.RA5.eth[0].mac.queue.dataQueue packetRemoved:count 0
attr interpolationmode none
attr title "packets removed, count"
scalar CampusNetwork.RA5.eth[0].mac.queue.dataQueue packetRemoved:sum(packetBytes) 0
attr interpolationmode none
attr title "packets removed, sum(packetBytes)"
scalar CampusNetwork.RA5.eth[0].mac.queue.scheduler packetPopped:count 9
attr interpolationmode none
attr title "packets popped, count"
scalar CampusNetwork.RA5.eth[0].mac.queue.scheduler packetPopped:sum(packetBytes) 576
attr interpolationmode none
attr title "packets popped, sum(packetBytes)"
scalar CampusNetwork.RA5.eth[0].mac.queue packetPopped:count 9
attr interpolationmode none
attr source localSignal(packetPopped)
attr title "packets popped, count"
scalar CampusNetwork.RA5.eth[0].mac.queue packetPopped:sum(packetBytes) 576
attr interpolationmode none
attr source localSignal(packetPopped)
attr title "packets popped, sum(packetBytes)"
statistic CampusNetwork.RA5.eth[0].mac.queue queueingTime:histogram
field count 27
field mean 0
field stddev 0
field min 0
field max 0
field sum 0
field sqrsum 0
attr interpolationmode none
attr source queueingTime(packetPopped)
attr title "queueing times, histogram"
attr unit s
bin	-inf	0
bin	-0.5	0
bin	-0.48	0
bin	-0.46	0
bin	-0.44	0
bin	-0.42	0
bin	-0.4	0
bin	-0.38	0
bin	-0.36	0
bin	-0.34	0
bin	-0.32	0
bin	-0.3	0
bin	-0.28	0
bin	-0.26	0
bin	-0.24	0
bin	-0.22	0
bin	-0.2	0
bin	-0.18	0
bin	-0.16	0
bin	-0.14	0
bin	-0.12	0
bin	-0.1	0
bin	-0.08	0
bin	-0.06	0
bin	-0.04	0
bin	-0.02	0
bin	0	27
bin	0.02	0
bin	0.04	0
bin	0.06	0
bin	0.08	0
bin	0.1	0
bin	0.12	0
bin	0.14	0
bin	0.16	0
bin	0.18	0
bin	0.2	0
bin	0.22	0
bin	0.24	0
bin	0.26	0
bin	0.28	0
bin	0.3	0
bin	0.32	0
bin	0.34	0
bin	0.36	0
bin	0.38	0
bin	0.4	0
bin	0.42	0
bin	0.44	0
bin	0.46	0
bin	0.48	0
bin	0.5	0
scalar CampusNetwork.RA5.eth[0].mac.queue queueLength:max 1
attr interpolationmode sample-hold
attr source "count(localSignal(packetPushed)) - count(localSignal(packetPopped)) - count(localSignal(packetRemoved)) - count(packetDropped)"
attr title "queue length, max"
scalar CampusNetwork.RA5.eth[0].mac.queue queueLength:timeavg 0
attr interpolationmode sample-hold
attr source "count(localSignal(packetPushed)) - count(localSignal(packetPopped)) - count(localSignal(packetRemoved)) - count(packetDropped)"
attr title "queue length, timeavg"
scalar CampusNetwork.RA5.eth[0].mac.queue packetPushed:count 9
attr interpolationmode none
attr source localSignal(packetPushed)
attr title "packets pushed, count"
scalar CampusNetwork.RA5.eth[0].mac.queue packetPushed:sum(packetBytes) 576
attr interpolationmode none
attr source localSignal(packetPushed)
attr title "packets pushed, sum(packetBytes)"
scalar CampusNetwork.RA5.eth[0].mac.queue packetDropQueueOverflow:count 0
attr interpolationmode none
attr source packetDropReasonIsQueueOverflow(packetDropped)
attr title "packets dropped: queue overflow, count"
scalar CampusNetwork.RA5.eth[0].mac.queue packetDropQueueOverflow:sum(packetBytes) 0
attr interpolationmode none
attr source packetDropReasonIsQueueOverflow(packetDropped)
attr title "packets dropped: queue overflow, sum(packetBytes)"
scalar CampusNetwork.RA5.eth[0].mac.queue packetRemoved:count 0
attr interpolationmode none
attr source localSignal(packetRemoved)
attr title "packets removed, count"
scalar CampusNetwork.RA5.eth[0].mac.queue packetRemoved:sum(packetBytes) 0
attr interpolationmode none
attr source localSignal(packetRemoved)
attr title "packets removed, sum(packetBytes)"
scalar CampusNetwork.RA5.eth[0].mac "simulated time" 1e+003
scalar CampusNetwork.RA5.eth[0].mac full-duplex 1
scalar CampusNetwork.RA5.eth[0].mac "frames/sec sent" 0.009
scalar CampusNetwork.RA5.eth[0].mac "frames/sec rcvd" 0.508
scalar CampusNetwork.RA5.eth[0].mac "bits/sec sent" 4.61
scalar CampusNetwork.RA5.eth[0].mac "bits/sec rcvd" 316
scalar CampusNetwork.RA5.eth[0].mac "rx channel idle (%)" 100
scalar CampusNetwork.RA5.eth[0].mac "rx channel utilization (%)" 0
scalar CampusNetwork.RA5.eth[0].mac txPk:count 9
attr interpolationmode none
attr source packetSentToLower
attr title "packets transmitted, count"
scalar CampusNetwork.RA5.eth[0].mac txPk:sum(packetBytes) 576
attr interpolationmode none
attr source packetSentToLower
attr title "packets transmitted, sum(packetBytes)"
scalar CampusNetwork.RA5.eth[0].mac packetReceivedFromUpper:count 9
attr interpolationmode none
attr source packetReceivedFromUpper
attr title "packet bytes from higher layer, count"
scalar CampusNetwork.RA5.eth[0].mac packetReceivedFromUpper:sum(packetBytes) 414
attr interpolationmode none
attr source packetReceivedFromUpper
attr title "packet bytes from higher layer, sum(packetBytes)"
scalar CampusNetwork.RA5.eth[0].mac passedUpPk:count 508
attr interpolationmode none
attr source packetSentToUpper
attr title "packets passed to higher layer, count"
scalar CampusNetwork.RA5.eth[0].mac passedUpPk:sum(packetBytes) 3.95e+004
attr interpolationmode none
attr source packetSentToUpper
attr title "packets passed to higher layer, sum(packetBytes)"
scalar CampusNetwork.RA5.eth[0].mac packetDropIncorrectlyReceived:count 0
attr interpolationmode none
attr source packetDropReasonIsIncorrectlyReceived(packetDropped)
attr title "packet drop: incorrectly received, count"
scalar CampusNetwork.RA5.eth[0].mac packetDropIncorrectlyReceived:sum(packetBytes) 0
attr interpolationmode none
attr source packetDropReasonIsIncorrectlyReceived(packetDropped)
attr title "packet drop: incorrectly received, sum(packetBytes)"
scalar CampusNetwork.RA5.eth[0].mac packetDropInterfaceDown:count 0
attr interpolationmode none
attr source packetDropReasonIsInterfaceDown(packetDropped)
attr title "packet drop: interface down, count"
scalar CampusNetwork.RA5.eth[0].mac packetDropInterfaceDown:sum(packetBytes) 0
attr interpolationmode none
attr source packetDropReasonIsInterfaceDown(packetDropped)
attr title "packet drop: interface down, sum(packetBytes)"
scalar CampusNetwork.RA5.eth[0].mac packetDropNotAddressedToUs:count 0
attr interpolationmode none
attr source packetDropReasonIsNotAddressedToUs(packetDropped)
attr title "packet drop: not addressed to us, count"
scalar CampusNetwork.RA5.eth[0].mac packetDropNotAddressedToUs:sum(packetBytes) 0
attr interpolationmode none
attr source packetDropReasonIsNotAddressedToUs(packetDropped)
attr title "packet drop: not addressed to us, sum(packetBytes)"
scalar CampusNetwork.RA5.eth[0].mac rxPausePkUnits:count 0
attr interpolationmode none
attr title "pause units received, count"
scalar CampusNetwork.RA5.eth[0].mac rxPausePkUnits:sum 0
attr interpolationmode none
attr title "pause units received, sum"
scalar CampusNetwork.RA5.eth[0].mac txPausePkUnits:count 0
attr interpolationmode none
attr title "pause units sent, count"
scalar CampusNetwork.RA5.eth[0].mac txPausePkUnits:sum 0
attr interpolationmode none
attr title "pause units sent, sum"
scalar CampusNetwork.RA5.eth[0].mac rxPkOk:count 508
attr interpolationmode none
attr source rxPkOk
attr title "packets received OK, count"
scalar CampusNetwork.RA5.eth[0].mac rxPkOk:sum(packetBytes) 3.95e+004
attr interpolationmode none
attr source rxPkOk
attr title "packets received OK, sum(packetBytes)"
scalar CampusNetwork.RA5.eth[0].encap pauseSent:count 0
attr title "pause sent, count"
scalar CampusNetwork.RA5.eth[0].encap pauseSent:sum 0
attr title "pause sent, sum"
scalar CampusNetwork.RA5.eth[0].encap decapPk:count 508
attr interpolationmode none
attr source decapPk
attr title "packets decapsulated, count"
scalar CampusNetwork.RA5.eth[0].encap decapPk:sum(packetBytes) 3.04e+004
attr interpolationmode none
attr source decapPk
attr title "packets decapsulated, sum(packetBytes)"
scalar CampusNetwork.RA5.eth[0].encap encapPk:count 9
attr interpolationmode none
attr source encapPk
attr title "packets encapsulated, count"
scalar CampusNetwork.RA5.eth[0].encap encapPk:sum(packetBytes) 252
attr interpolationmode none
attr source encapPk
attr title "packets encapsulated, sum(packetBytes)"
scalar CampusNetwork.RA5.ipv4.ip packetDropAddressResolutionFailed:count 0
attr interpolationmode none
attr source packetDropReasonIsAddressResolutionFailed(packetDropped)
attr title "packet drop: address resolution failed, count"
scalar CampusNetwork.RA5.ipv4.ip packetDropAddressResolutionFailed:sum(packetBytes) 0
attr interpolationmode none
attr source packetDropReasonIsAddressResolutionFailed(packetDropped)
attr title "packet drop: address resolution failed, sum(packetBytes)"
scalar CampusNetwork.RA5.ipv4.ip packetDropHopLimitReached:count 0
attr interpolationmode none
attr source packetDropReasonIsHopLimitReached(packetDropped)
attr title "packet drop: hop limit reached, count"
scalar CampusNetwork.RA5.ipv4.ip packetDropHopLimitReached:sum(packetBytes) 0
attr interpolationmode none
attr source packetDropReasonIsHopLimitReached(packetDropped)
attr title "packet drop: hop limit reached, sum(packetBytes)"
scalar CampusNetwork.RA5.ipv4.ip packetDropForwardingDisabled:count 0
attr interpolationmode none
attr source packetDropReasonIsForwardingDisabled(packetDropped)
attr title "packet drop: forwarding disabled, count"
scalar CampusNetwork.RA5.ipv4.ip packetDropForwardingDisabled:sum(packetBytes) 0
attr interpolationmode none
attr source packetDropReasonIsForwardingDisabled(packetDropped)
attr title "packet drop: forwarding disabled, sum(packetBytes)"
scalar CampusNetwork.RA5.ipv4.ip packetDropNoInterfaceFound:count 0
attr interpolationmode none
attr source packetDropReasonIsNoInterfaceFound(packetDropped)
attr title "packet drop: no interface found, count"
scalar CampusNetwork.RA5.ipv4.ip packetDropNoInterfaceFound:sum(packetBytes) 0
attr interpolationmode none
attr source packetDropReasonIsNoInterfaceFound(packetDropped)
attr title "packet drop: no interface found, sum(packetBytes)"
scalar CampusNetwork.RA5.ipv4.ip packetDropNoRouteFound:count 0
attr interpolationmode none
attr source packetDropReasonIsNoRouteFound(packetDropped)
attr title "packet drop: no route found, count"
scalar CampusNetwork.RA5.ipv4.ip packetDropNoRouteFound:sum(packetBytes) 0
attr interpolationmode none
attr source packetDropReasonIsNoRouteFound(packetDropped)
attr title "packet drop: no route found, sum(packetBytes)"
scalar CampusNetwork.RA5.ipv4.ip packetDropUndefined:count 0
attr interpolationmode none
attr source packetDropReasonIsUndefined(packetDropped)
attr title "packet drop: undefined, count"
scalar CampusNetwork.RA5.ipv4.ip packetDropUndefined:sum(packetBytes) 0
attr interpolationmode none
attr source packetDropReasonIsUndefined(packetDropped)
attr title "packet drop: undefined, sum(packetBytes)"
scalar CampusNetwork.RA5.ipv4.arp arpReplySent:count 9
attr source arpReplySent
attr title "ARP replies sent, count"
scalar CampusNetwork.RA5.ipv4.arp arpReplySent:sum(packetBytes) 252
attr source arpReplySent
attr title "ARP replies sent, sum(packetBytes)"
scalar CampusNetwork.RA5.ipv4.arp arpRequestSent:count 0
attr source arpRequestSent
attr title "ARP request sent, count"
scalar CampusNetwork.RA5.ipv4.arp arpRequestSent:sum(packetBytes) 0
attr source arpRequestSent
attr title "ARP request sent, sum(packetBytes)"
scalar CampusNetwork.RA5.ipv4.arp arpResolutionFailed:count 0
attr title "ARP failed resolutions, count"
scalar CampusNetwork.RA5.ipv4.arp arpResolutionCompleted:count 9
attr title "ARP completed resolutions, count"
scalar CampusNetwork.RA5.ipv4.arp arpResolutionInitiated:count 0
attr title "ARP initiated resolutions, count"

