file 15548365 1734786568                                        
version 2
run General-0-20241221-21:09:20-24280
attr configname General
attr datetime 20241221-21:09:20
attr experiment General
attr inifile omnetpp.ini
attr iterationvars ""
attr iterationvarsf ""
attr measurement ""
attr network CampusNetwork
attr processid 24280
attr repetition 0
attr replication #0
attr resultdir results
attr runnumber 0
attr seedset 0
param **.rsvp.procDelay 1us
param **.tcp.typename "\"Tcp\""
param **.tcp.mss 1024
param **.tcp.advertisedWindow 14336
param **.tcp.tcpAlgorithmClass "\"TcpReno\""
param **.eth[*].mac.queue.typename "\"EtherQosQueue\""
param **.eth[*].mac.queue.dataQueue.typename "\"DropTailQueue\""
param **.eth[*].mac.queue.dataQueue.packetCapacity 100
param **.ospfConfig "xmldoc(\"RouteConfig.xml\")"
param **.bgpConfig "xmldoc(\"ASConfig.xml\")"
param **.bgp.redistributeOspf "\"O IA E2\""
param **.HA*.numApps 1
param **.HB*.numApps 1
param **.HC*.numApps 1
param **.app[0].messageLength "32 bytes"
param **.app[0].sendInterval 2s
param **.app[0].localPort 1234
param **.app[0].destPort 1234
param **.HA11.app[*].typename "\"UdpBasicApp\""
param **.HA11.app[0].destAddresses "\"192.170.1.2\""
param **.HA21.app[*].typename "\"UdpBasicApp\""
param **.HA21.app[0].destAddresses "\"192.169.1.2\""
param **.HA31.app[*].typename "\"UdpBasicApp\""
param **.HA31.app[0].destAddresses "\"192.172.1.2\""
param **.HA41.app[*].typename "\"UdpBasicApp\""
param **.HA41.app[0].destAddresses "\"192.172.1.2\""
param **.HA51.app[*].typename "\"UdpBasicApp\""
param **.HA51.app[0].destAddresses "\"192.172.1.2\""
param **.HB11.app[*].typename "\"UdpBasicApp\""
param **.HB11.app[0].destAddresses "\"192.169.1.2\""
param **.HB21.app[*].typename "\"UdpBasicApp\""
param **.HB21.app[0].destAddresses "\"192.168.1.2\""
param **.HB31.app[*].typename "\"UdpBasicApp\""
param **.HB31.app[0].destAddresses "\"192.168.1.2\""
param **.HC11.app[*].typename "\"UdpBasicApp\""
param **.HC11.app[0].destAddresses "\"192.181.1.2\""
param **.HA12.app[*].typename "\"UdpSink\""
param **.HA22.app[*].typename "\"UdpSink\""
param **.HA32.app[*].typename "\"UdpSink\""
param **.HA42.app[*].typename "\"UdpSink\""
param **.HA52.app[*].typename "\"UdpSink\""
param **.HB12.app[*].typename "\"UdpSink\""
param **.HB22.app[*].typename "\"UdpSink\""
param **.HB32.app[*].typename "\"UdpSink\""
param **.HC12.app[*].typename "\"UdpSink\""
param *.visualizer.interfaceTableVisualizer.displayInterfaceTables true

vector 0 CampusNetwork.A.ppp[0].ppp transmissionState:vector ETV
attr interpolationmode sample-hold
attr source transmissionStateChanged
attr title "tx state, vector"
vector 1 CampusNetwork.A.ppp[1].ppp transmissionState:vector ETV
attr interpolationmode sample-hold
attr source transmissionStateChanged
attr title "tx state, vector"
vector 2 CampusNetwork.A.ppp[2].ppp transmissionState:vector ETV
attr interpolationmode sample-hold
attr source transmissionStateChanged
attr title "tx state, vector"
vector 3 CampusNetwork.A.ppp[3].ppp transmissionState:vector ETV
attr interpolationmode sample-hold
attr source transmissionStateChanged
attr title "tx state, vector"
vector 4 CampusNetwork.A.ppp[4].ppp transmissionState:vector ETV
attr interpolationmode sample-hold
attr source transmissionStateChanged
attr title "tx state, vector"
vector 5 CampusNetwork.A.ppp[5].ppp transmissionState:vector ETV
attr interpolationmode sample-hold
attr source transmissionStateChanged
attr title "tx state, vector"
vector 6 CampusNetwork.A.ppp[6].ppp transmissionState:vector ETV
attr interpolationmode sample-hold
attr source transmissionStateChanged
attr title "tx state, vector"
vector 7 CampusNetwork.B.ppp[0].ppp transmissionState:vector ETV
attr interpolationmode sample-hold
attr source transmissionStateChanged
attr title "tx state, vector"
vector 8 CampusNetwork.B.ppp[1].ppp transmissionState:vector ETV
attr interpolationmode sample-hold
attr source transmissionStateChanged
attr title "tx state, vector"
vector 9 CampusNetwork.B.ppp[2].ppp transmissionState:vector ETV
attr interpolationmode sample-hold
attr source transmissionStateChanged
attr title "tx state, vector"
vector 10 CampusNetwork.B.ppp[3].ppp transmissionState:vector ETV
attr interpolationmode sample-hold
attr source transmissionStateChanged
attr title "tx state, vector"
vector 11 CampusNetwork.B.ppp[4].ppp transmissionState:vector ETV
attr interpolationmode sample-hold
attr source transmissionStateChanged
attr title "tx state, vector"
vector 12 CampusNetwork.C.ppp[0].ppp transmissionState:vector ETV
attr interpolationmode sample-hold
attr source transmissionStateChanged
attr title "tx state, vector"
vector 13 CampusNetwork.C.ppp[1].ppp transmissionState:vector ETV
attr interpolationmode sample-hold
attr source transmissionStateChanged
attr title "tx state, vector"
vector 14 CampusNetwork.C.ppp[2].ppp transmissionState:vector ETV
attr interpolationmode sample-hold
attr source transmissionStateChanged
attr title "tx state, vector"
vector 15 CampusNetwork.RA1.ppp[0].ppp transmissionState:vector ETV
attr interpolationmode sample-hold
attr source transmissionStateChanged
attr title "tx state, vector"
vector 16 CampusNetwork.RA1.ppp[1].ppp transmissionState:vector ETV
attr interpolationmode sample-hold
attr source transmissionStateChanged
attr title "tx state, vector"
vector 17 CampusNetwork.RA2.ppp[0].ppp transmissionState:vector ETV
attr interpolationmode sample-hold
attr source transmissionStateChanged
attr title "tx state, vector"
vector 18 CampusNetwork.RA2.ppp[1].ppp transmissionState:vector ETV
attr interpolationmode sample-hold
attr source transmissionStateChanged
attr title "tx state, vector"
vector 19 CampusNetwork.RB1.ppp[0].ppp transmissionState:vector ETV
attr interpolationmode sample-hold
attr source transmissionStateChanged
attr title "tx state, vector"
vector 20 CampusNetwork.RB1.ppp[1].ppp transmissionState:vector ETV
attr interpolationmode sample-hold
attr source transmissionStateChanged
attr title "tx state, vector"
vector 21 CampusNetwork.RB2.ppp[0].ppp transmissionState:vector ETV
attr interpolationmode sample-hold
attr source transmissionStateChanged
attr title "tx state, vector"
vector 22 CampusNetwork.RB2.ppp[1].ppp transmissionState:vector ETV
attr interpolationmode sample-hold
attr source transmissionStateChanged
attr title "tx state, vector"
vector 23 CampusNetwork.RB3.ppp[0].ppp transmissionState:vector ETV
attr interpolationmode sample-hold
attr source transmissionStateChanged
attr title "tx state, vector"
vector 24 CampusNetwork.RC1.ppp[0].ppp transmissionState:vector ETV
attr interpolationmode sample-hold
attr source transmissionStateChanged
attr title "tx state, vector"
vector 25 CampusNetwork.RA3.ppp[0].ppp transmissionState:vector ETV
attr interpolationmode sample-hold
attr source transmissionStateChanged
attr title "tx state, vector"
vector 26 CampusNetwork.RA4.ppp[0].ppp transmissionState:vector ETV
attr interpolationmode sample-hold
attr source transmissionStateChanged
attr title "tx state, vector"
vector 27 CampusNetwork.RA5.ppp[0].ppp transmissionState:vector ETV
attr interpolationmode sample-hold
attr source transmissionStateChanged
attr title "tx state, vector"
vector 28 CampusNetwork.RB2.ppp[0].ppp rcvdPkFromHl:vector(packetBytes) ETV
attr interpolationmode none
attr source packetReceivedFromUpper
attr title "packets received from higher layer, vector(packetBytes)"
vector 29 CampusNetwork.RB2.ppp[0].ppp.queue packetPushed:vector(packetBytes) ETV
attr interpolationmode none
attr title "packet pushed, vector(packetBytes)"
vector 30 CampusNetwork.RB2.ppp[0].ppp.queue queueLength:vector ETV
attr interpolationmode sample-hold
attr source "count(packetPushed) - count(packetPopped) - count(packetRemoved) - count(packetDropped)"
attr title "queue length, vector"
vector 31 CampusNetwork.RB2.ppp[0].ppp.queue packetPopped:vector(packetBytes) ETV
attr interpolationmode none
attr title "packet popped, vector(packetBytes)"
vector 32 CampusNetwork.RB2.ppp[0].ppp.queue queueingTime:vector ETV
attr interpolationmode none
attr source queueingTime(packetPopped)
attr title "queueing times, vector"
attr unit s
vector 33 CampusNetwork.RB2.ppp[0].ppp txPk:vector(packetBytes) ETV
attr interpolationmode none
attr source packetSentToLower
attr title "packets transmitted, vector(packetBytes)"
vector 34 CampusNetwork.B.ppp[3].ppp rxPkOk:vector(packetBytes) ETV
attr interpolationmode none
attr source rxPkOk
attr title "packets received OK, vector(packetBytes)"
vector 35 CampusNetwork.B.ppp[3].ppp passedUpPk:vector(packetBytes) ETV
attr interpolationmode none
attr source packetSentToUpper
attr title "packets passed to higher layer, vector(packetBytes)"
vector 36 CampusNetwork.RA1.ppp[0].ppp rcvdPkFromHl:vector(packetBytes) ETV
attr interpolationmode none
attr source packetReceivedFromUpper
attr title "packets received from higher layer, vector(packetBytes)"
vector 37 CampusNetwork.RA1.ppp[0].ppp.queue packetPushed:vector(packetBytes) ETV
attr interpolationmode none
attr title "packet pushed, vector(packetBytes)"
vector 38 CampusNetwork.RA1.ppp[0].ppp.queue queueLength:vector ETV
attr interpolationmode sample-hold
attr source "count(packetPushed) - count(packetPopped) - count(packetRemoved) - count(packetDropped)"
attr title "queue length, vector"
vector 39 CampusNetwork.RA1.ppp[0].ppp.queue packetPopped:vector(packetBytes) ETV
attr interpolationmode none
attr title "packet popped, vector(packetBytes)"
vector 40 CampusNetwork.RA1.ppp[0].ppp.queue queueingTime:vector ETV
attr interpolationmode none
attr source queueingTime(packetPopped)
attr title "queueing times, vector"
attr unit s
vector 41 CampusNetwork.RA1.ppp[0].ppp txPk:vector(packetBytes) ETV
attr interpolationmode none
attr source packetSentToLower
attr title "packets transmitted, vector(packetBytes)"
vector 42 CampusNetwork.A.ppp[2].ppp rxPkOk:vector(packetBytes) ETV
attr interpolationmode none
attr source rxPkOk
attr title "packets received OK, vector(packetBytes)"
vector 43 CampusNetwork.A.ppp[2].ppp passedUpPk:vector(packetBytes) ETV
attr interpolationmode none
attr source packetSentToUpper
attr title "packets passed to higher layer, vector(packetBytes)"
vector 44 CampusNetwork.A.ppp[2].ppp rcvdPkFromHl:vector(packetBytes) ETV
attr interpolationmode none
attr source packetReceivedFromUpper
attr title "packets received from higher layer, vector(packetBytes)"
vector 45 CampusNetwork.A.ppp[2].ppp.queue packetPushed:vector(packetBytes) ETV
attr interpolationmode none
attr title "packet pushed, vector(packetBytes)"
vector 46 CampusNetwork.A.ppp[2].ppp.queue queueLength:vector ETV
attr interpolationmode sample-hold
attr source "count(packetPushed) - count(packetPopped) - count(packetRemoved) - count(packetDropped)"
attr title "queue length, vector"
vector 47 CampusNetwork.A.ppp[2].ppp.queue packetPopped:vector(packetBytes) ETV
attr interpolationmode none
attr title "packet popped, vector(packetBytes)"
vector 48 CampusNetwork.A.ppp[2].ppp.queue queueingTime:vector ETV
attr interpolationmode none
attr source queueingTime(packetPopped)
attr title "queueing times, vector"
attr unit s
vector 49 CampusNetwork.A.ppp[2].ppp txPk:vector(packetBytes) ETV
attr interpolationmode none
attr source packetSentToLower
attr title "packets transmitted, vector(packetBytes)"
vector 50 CampusNetwork.RA1.ppp[0].ppp rxPkOk:vector(packetBytes) ETV
attr interpolationmode none
attr source rxPkOk
attr title "packets received OK, vector(packetBytes)"
vector 51 CampusNetwork.RA1.ppp[0].ppp passedUpPk:vector(packetBytes) ETV
attr interpolationmode none
attr source packetSentToUpper
attr title "packets passed to higher layer, vector(packetBytes)"
vector 52 CampusNetwork.RB2.ppp[1].ppp rcvdPkFromHl:vector(packetBytes) ETV
attr interpolationmode none
attr source packetReceivedFromUpper
attr title "packets received from higher layer, vector(packetBytes)"
vector 53 CampusNetwork.RB2.ppp[1].ppp.queue packetPushed:vector(packetBytes) ETV
attr interpolationmode none
attr title "packet pushed, vector(packetBytes)"
vector 54 CampusNetwork.RB2.ppp[1].ppp.queue queueLength:vector ETV
attr interpolationmode sample-hold
attr source "count(packetPushed) - count(packetPopped) - count(packetRemoved) - count(packetDropped)"
attr title "queue length, vector"
vector 55 CampusNetwork.RB2.ppp[1].ppp.queue packetPopped:vector(packetBytes) ETV
attr interpolationmode none
attr title "packet popped, vector(packetBytes)"
vector 56 CampusNetwork.RB2.ppp[1].ppp.queue queueingTime:vector ETV
attr interpolationmode none
attr source queueingTime(packetPopped)
attr title "queueing times, vector"
attr unit s
vector 57 CampusNetwork.RB2.ppp[1].ppp txPk:vector(packetBytes) ETV
attr interpolationmode none
attr source packetSentToLower
attr title "packets transmitted, vector(packetBytes)"
vector 58 CampusNetwork.RB1.ppp[1].ppp rxPkOk:vector(packetBytes) ETV
attr interpolationmode none
attr source rxPkOk
attr title "packets received OK, vector(packetBytes)"
vector 59 CampusNetwork.RB1.ppp[1].ppp passedUpPk:vector(packetBytes) ETV
attr interpolationmode none
attr source packetSentToUpper
attr title "packets passed to higher layer, vector(packetBytes)"
vector 60 CampusNetwork.RB1.ppp[0].ppp rcvdPkFromHl:vector(packetBytes) ETV
attr interpolationmode none
attr source packetReceivedFromUpper
attr title "packets received from higher layer, vector(packetBytes)"
vector 61 CampusNetwork.RB1.ppp[0].ppp.queue packetPushed:vector(packetBytes) ETV
attr interpolationmode none
attr title "packet pushed, vector(packetBytes)"
vector 62 CampusNetwork.RB1.ppp[0].ppp.queue queueLength:vector ETV
attr interpolationmode sample-hold
attr source "count(packetPushed) - count(packetPopped) - count(packetRemoved) - count(packetDropped)"
attr title "queue length, vector"
vector 63 CampusNetwork.RB1.ppp[0].ppp.queue packetPopped:vector(packetBytes) ETV
attr interpolationmode none
attr title "packet popped, vector(packetBytes)"
vector 64 CampusNetwork.RB1.ppp[0].ppp.queue queueingTime:vector ETV
attr interpolationmode none
attr source queueingTime(packetPopped)
attr title "queueing times, vector"
attr unit s
vector 65 CampusNetwork.RB1.ppp[0].ppp txPk:vector(packetBytes) ETV
attr interpolationmode none
attr source packetSentToLower
attr title "packets transmitted, vector(packetBytes)"
vector 66 CampusNetwork.B.ppp[2].ppp rxPkOk:vector(packetBytes) ETV
attr interpolationmode none
attr source rxPkOk
attr title "packets received OK, vector(packetBytes)"
vector 67 CampusNetwork.B.ppp[2].ppp passedUpPk:vector(packetBytes) ETV
attr interpolationmode none
attr source packetSentToUpper
attr title "packets passed to higher layer, vector(packetBytes)"
vector 68 CampusNetwork.C.ppp[2].ppp rcvdPkFromHl:vector(packetBytes) ETV
attr interpolationmode none
attr source packetReceivedFromUpper
attr title "packets received from higher layer, vector(packetBytes)"
vector 69 CampusNetwork.C.ppp[2].ppp.queue packetPushed:vector(packetBytes) ETV
attr interpolationmode none
attr title "packet pushed, vector(packetBytes)"
vector 70 CampusNetwork.C.ppp[2].ppp.queue queueLength:vector ETV
attr interpolationmode sample-hold
attr source "count(packetPushed) - count(packetPopped) - count(packetRemoved) - count(packetDropped)"
attr title "queue length, vector"
vector 71 CampusNetwork.C.ppp[2].ppp.queue packetPopped:vector(packetBytes) ETV
attr interpolationmode none
attr title "packet popped, vector(packetBytes)"
vector 72 CampusNetwork.C.ppp[2].ppp.queue queueingTime:vector ETV
attr interpolationmode none
attr source queueingTime(packetPopped)
attr title "queueing times, vector"
attr unit s
vector 73 CampusNetwork.C.ppp[2].ppp txPk:vector(packetBytes) ETV
attr interpolationmode none
attr source packetSentToLower
attr title "packets transmitted, vector(packetBytes)"
vector 74 CampusNetwork.RC1.ppp[0].ppp rxPkOk:vector(packetBytes) ETV
attr interpolationmode none
attr source rxPkOk
attr title "packets received OK, vector(packetBytes)"
vector 75 CampusNetwork.RC1.ppp[0].ppp passedUpPk:vector(packetBytes) ETV
attr interpolationmode none
attr source packetSentToUpper
attr title "packets passed to higher layer, vector(packetBytes)"
vector 76 CampusNetwork.RA2.ppp[1].ppp rcvdPkFromHl:vector(packetBytes) ETV
attr interpolationmode none
attr source packetReceivedFromUpper
attr title "packets received from higher layer, vector(packetBytes)"
vector 77 CampusNetwork.RA2.ppp[1].ppp.queue packetPushed:vector(packetBytes) ETV
attr interpolationmode none
attr title "packet pushed, vector(packetBytes)"
vector 78 CampusNetwork.RA2.ppp[1].ppp.queue queueLength:vector ETV
attr interpolationmode sample-hold
attr source "count(packetPushed) - count(packetPopped) - count(packetRemoved) - count(packetDropped)"
attr title "queue length, vector"
vector 79 CampusNetwork.RA2.ppp[1].ppp.queue packetPopped:vector(packetBytes) ETV
attr interpolationmode none
attr title "packet popped, vector(packetBytes)"
vector 80 CampusNetwork.RA2.ppp[1].ppp.queue queueingTime:vector ETV
attr interpolationmode none
attr source queueingTime(packetPopped)
attr title "queueing times, vector"
attr unit s
vector 81 CampusNetwork.RA2.ppp[1].ppp txPk:vector(packetBytes) ETV
attr interpolationmode none
attr source packetSentToLower
attr title "packets transmitted, vector(packetBytes)"
vector 82 CampusNetwork.RA1.ppp[1].ppp rxPkOk:vector(packetBytes) ETV
attr interpolationmode none
attr source rxPkOk
attr title "packets received OK, vector(packetBytes)"
vector 83 CampusNetwork.RA1.ppp[1].ppp passedUpPk:vector(packetBytes) ETV
attr interpolationmode none
attr source packetSentToUpper
attr title "packets passed to higher layer, vector(packetBytes)"
vector 84 CampusNetwork.RA1.ppp[1].ppp rcvdPkFromHl:vector(packetBytes) ETV
attr interpolationmode none
attr source packetReceivedFromUpper
attr title "packets received from higher layer, vector(packetBytes)"
vector 85 CampusNetwork.RA1.ppp[1].ppp.queue packetPushed:vector(packetBytes) ETV
attr interpolationmode none
attr title "packet pushed, vector(packetBytes)"
vector 86 CampusNetwork.RA1.ppp[1].ppp.queue queueLength:vector ETV
attr interpolationmode sample-hold
attr source "count(packetPushed) - count(packetPopped) - count(packetRemoved) - count(packetDropped)"
attr title "queue length, vector"
vector 87 CampusNetwork.RA1.ppp[1].ppp.queue packetPopped:vector(packetBytes) ETV
attr interpolationmode none
attr title "packet popped, vector(packetBytes)"
vector 88 CampusNetwork.RA1.ppp[1].ppp.queue queueingTime:vector ETV
attr interpolationmode none
attr source queueingTime(packetPopped)
attr title "queueing times, vector"
attr unit s
vector 89 CampusNetwork.RA1.ppp[1].ppp txPk:vector(packetBytes) ETV
attr interpolationmode none
attr source packetSentToLower
attr title "packets transmitted, vector(packetBytes)"
vector 90 CampusNetwork.RA2.ppp[1].ppp rxPkOk:vector(packetBytes) ETV
attr interpolationmode none
attr source rxPkOk
attr title "packets received OK, vector(packetBytes)"
vector 91 CampusNetwork.RA2.ppp[1].ppp passedUpPk:vector(packetBytes) ETV
attr interpolationmode none
attr source packetSentToUpper
attr title "packets passed to higher layer, vector(packetBytes)"
vector 92 CampusNetwork.RA3.ppp[0].ppp rcvdPkFromHl:vector(packetBytes) ETV
attr interpolationmode none
attr source packetReceivedFromUpper
attr title "packets received from higher layer, vector(packetBytes)"
vector 93 CampusNetwork.RA3.ppp[0].ppp.queue packetPushed:vector(packetBytes) ETV
attr interpolationmode none
attr title "packet pushed, vector(packetBytes)"
vector 94 CampusNetwork.RA3.ppp[0].ppp.queue queueLength:vector ETV
attr interpolationmode sample-hold
attr source "count(packetPushed) - count(packetPopped) - count(packetRemoved) - count(packetDropped)"
attr title "queue length, vector"
vector 95 CampusNetwork.RA3.ppp[0].ppp.queue packetPopped:vector(packetBytes) ETV
attr interpolationmode none
attr title "packet popped, vector(packetBytes)"
vector 96 CampusNetwork.RA3.ppp[0].ppp.queue queueingTime:vector ETV
attr interpolationmode none
attr source queueingTime(packetPopped)
attr title "queueing times, vector"
attr unit s
vector 97 CampusNetwork.RA3.ppp[0].ppp txPk:vector(packetBytes) ETV
attr interpolationmode none
attr source packetSentToLower
attr title "packets transmitted, vector(packetBytes)"
vector 98 CampusNetwork.A.ppp[4].ppp rxPkOk:vector(packetBytes) ETV
attr interpolationmode none
attr source rxPkOk
attr title "packets received OK, vector(packetBytes)"
vector 99 CampusNetwork.A.ppp[4].ppp passedUpPk:vector(packetBytes) ETV
attr interpolationmode none
attr source packetSentToUpper
attr title "packets passed to higher layer, vector(packetBytes)"
vector 100 CampusNetwork.RC1.ppp[0].ppp rcvdPkFromHl:vector(packetBytes) ETV
attr interpolationmode none
attr source packetReceivedFromUpper
attr title "packets received from higher layer, vector(packetBytes)"
vector 101 CampusNetwork.RC1.ppp[0].ppp.queue packetPushed:vector(packetBytes) ETV
attr interpolationmode none
attr title "packet pushed, vector(packetBytes)"
vector 102 CampusNetwork.RC1.ppp[0].ppp.queue queueLength:vector ETV
attr interpolationmode sample-hold
attr source "count(packetPushed) - count(packetPopped) - count(packetRemoved) - count(packetDropped)"
attr title "queue length, vector"
vector 103 CampusNetwork.RC1.ppp[0].ppp.queue packetPopped:vector(packetBytes) ETV
attr interpolationmode none
attr title "packet popped, vector(packetBytes)"
vector 104 CampusNetwork.RC1.ppp[0].ppp.queue queueingTime:vector ETV
attr interpolationmode none
attr source queueingTime(packetPopped)
attr title "queueing times, vector"
attr unit s
vector 105 CampusNetwork.RC1.ppp[0].ppp txPk:vector(packetBytes) ETV
attr interpolationmode none
attr source packetSentToLower
attr title "packets transmitted, vector(packetBytes)"
vector 106 CampusNetwork.C.ppp[2].ppp rxPkOk:vector(packetBytes) ETV
attr interpolationmode none
attr source rxPkOk
attr title "packets received OK, vector(packetBytes)"
vector 107 CampusNetwork.C.ppp[2].ppp passedUpPk:vector(packetBytes) ETV
attr interpolationmode none
attr source packetSentToUpper
attr title "packets passed to higher layer, vector(packetBytes)"
vector 108 CampusNetwork.RA4.ppp[0].ppp rcvdPkFromHl:vector(packetBytes) ETV
attr interpolationmode none
attr source packetReceivedFromUpper
attr title "packets received from higher layer, vector(packetBytes)"
vector 109 CampusNetwork.RA4.ppp[0].ppp.queue packetPushed:vector(packetBytes) ETV
attr interpolationmode none
attr title "packet pushed, vector(packetBytes)"
vector 110 CampusNetwork.RA4.ppp[0].ppp.queue queueLength:vector ETV
attr interpolationmode sample-hold
attr source "count(packetPushed) - count(packetPopped) - count(packetRemoved) - count(packetDropped)"
attr title "queue length, vector"
vector 111 CampusNetwork.RA4.ppp[0].ppp.queue packetPopped:vector(packetBytes) ETV
attr interpolationmode none
attr title "packet popped, vector(packetBytes)"
vector 112 CampusNetwork.RA4.ppp[0].ppp.queue queueingTime:vector ETV
attr interpolationmode none
attr source queueingTime(packetPopped)
attr title "queueing times, vector"
attr unit s
vector 113 CampusNetwork.RA4.ppp[0].ppp txPk:vector(packetBytes) ETV
attr interpolationmode none
attr source packetSentToLower
attr title "packets transmitted, vector(packetBytes)"
vector 114 CampusNetwork.A.ppp[5].ppp rxPkOk:vector(packetBytes) ETV
attr interpolationmode none
attr source rxPkOk
attr title "packets received OK, vector(packetBytes)"
vector 115 CampusNetwork.A.ppp[5].ppp passedUpPk:vector(packetBytes) ETV
attr interpolationmode none
attr source packetSentToUpper
attr title "packets passed to higher layer, vector(packetBytes)"
vector 116 CampusNetwork.RB1.ppp[1].ppp rcvdPkFromHl:vector(packetBytes) ETV
attr interpolationmode none
attr source packetReceivedFromUpper
attr title "packets received from higher layer, vector(packetBytes)"
vector 117 CampusNetwork.RB1.ppp[1].ppp.queue packetPushed:vector(packetBytes) ETV
attr interpolationmode none
attr title "packet pushed, vector(packetBytes)"
vector 118 CampusNetwork.RB1.ppp[1].ppp.queue queueLength:vector ETV
attr interpolationmode sample-hold
attr source "count(packetPushed) - count(packetPopped) - count(packetRemoved) - count(packetDropped)"
attr title "queue length, vector"
vector 119 CampusNetwork.RB1.ppp[1].ppp.queue packetPopped:vector(packetBytes) ETV
attr interpolationmode none
attr title "packet popped, vector(packetBytes)"
vector 120 CampusNetwork.RB1.ppp[1].ppp.queue queueingTime:vector ETV
attr interpolationmode none
attr source queueingTime(packetPopped)
attr title "queueing times, vector"
attr unit s
vector 121 CampusNetwork.RB1.ppp[1].ppp txPk:vector(packetBytes) ETV
attr interpolationmode none
attr source packetSentToLower
attr title "packets transmitted, vector(packetBytes)"
vector 122 CampusNetwork.RB2.ppp[1].ppp rxPkOk:vector(packetBytes) ETV
attr interpolationmode none
attr source rxPkOk
attr title "packets received OK, vector(packetBytes)"
vector 123 CampusNetwork.RB2.ppp[1].ppp passedUpPk:vector(packetBytes) ETV
attr interpolationmode none
attr source packetSentToUpper
attr title "packets passed to higher layer, vector(packetBytes)"
vector 124 CampusNetwork.B.ppp[3].ppp rcvdPkFromHl:vector(packetBytes) ETV
attr interpolationmode none
attr source packetReceivedFromUpper
attr title "packets received from higher layer, vector(packetBytes)"
vector 125 CampusNetwork.B.ppp[3].ppp.queue packetPushed:vector(packetBytes) ETV
attr interpolationmode none
attr title "packet pushed, vector(packetBytes)"
vector 126 CampusNetwork.B.ppp[3].ppp.queue queueLength:vector ETV
attr interpolationmode sample-hold
attr source "count(packetPushed) - count(packetPopped) - count(packetRemoved) - count(packetDropped)"
attr title "queue length, vector"
vector 127 CampusNetwork.B.ppp[3].ppp.queue packetPopped:vector(packetBytes) ETV
attr interpolationmode none
attr title "packet popped, vector(packetBytes)"
vector 128 CampusNetwork.B.ppp[3].ppp.queue queueingTime:vector ETV
attr interpolationmode none
attr source queueingTime(packetPopped)
attr title "queueing times, vector"
attr unit s
vector 129 CampusNetwork.B.ppp[3].ppp txPk:vector(packetBytes) ETV
attr interpolationmode none
attr source packetSentToLower
attr title "packets transmitted, vector(packetBytes)"
vector 130 CampusNetwork.RB2.ppp[0].ppp rxPkOk:vector(packetBytes) ETV
attr interpolationmode none
attr source rxPkOk
attr title "packets received OK, vector(packetBytes)"
vector 131 CampusNetwork.RB2.ppp[0].ppp passedUpPk:vector(packetBytes) ETV
attr interpolationmode none
attr source packetSentToUpper
attr title "packets passed to higher layer, vector(packetBytes)"
vector 132 CampusNetwork.B.ppp[2].ppp rcvdPkFromHl:vector(packetBytes) ETV
attr interpolationmode none
attr source packetReceivedFromUpper
attr title "packets received from higher layer, vector(packetBytes)"
vector 133 CampusNetwork.B.ppp[2].ppp.queue packetPushed:vector(packetBytes) ETV
attr interpolationmode none
attr title "packet pushed, vector(packetBytes)"
vector 134 CampusNetwork.B.ppp[2].ppp.queue queueLength:vector ETV
attr interpolationmode sample-hold
attr source "count(packetPushed) - count(packetPopped) - count(packetRemoved) - count(packetDropped)"
attr title "queue length, vector"
vector 135 CampusNetwork.B.ppp[2].ppp.queue packetPopped:vector(packetBytes) ETV
attr interpolationmode none
attr title "packet popped, vector(packetBytes)"
vector 136 CampusNetwork.B.ppp[2].ppp.queue queueingTime:vector ETV
attr interpolationmode none
attr source queueingTime(packetPopped)
attr title "queueing times, vector"
attr unit s
vector 137 CampusNetwork.B.ppp[2].ppp txPk:vector(packetBytes) ETV
attr interpolationmode none
attr source packetSentToLower
attr title "packets transmitted, vector(packetBytes)"
vector 138 CampusNetwork.RB1.ppp[0].ppp rxPkOk:vector(packetBytes) ETV
attr interpolationmode none
attr source rxPkOk
attr title "packets received OK, vector(packetBytes)"
vector 139 CampusNetwork.RB1.ppp[0].ppp passedUpPk:vector(packetBytes) ETV
attr interpolationmode none
attr source packetSentToUpper
attr title "packets passed to higher layer, vector(packetBytes)"
vector 140 CampusNetwork.A.ppp[3].ppp rcvdPkFromHl:vector(packetBytes) ETV
attr interpolationmode none
attr source packetReceivedFromUpper
attr title "packets received from higher layer, vector(packetBytes)"
vector 141 CampusNetwork.A.ppp[3].ppp.queue packetPushed:vector(packetBytes) ETV
attr interpolationmode none
attr title "packet pushed, vector(packetBytes)"
vector 142 CampusNetwork.A.ppp[3].ppp.queue queueLength:vector ETV
attr interpolationmode sample-hold
attr source "count(packetPushed) - count(packetPopped) - count(packetRemoved) - count(packetDropped)"
attr title "queue length, vector"
vector 143 CampusNetwork.A.ppp[3].ppp.queue packetPopped:vector(packetBytes) ETV
attr interpolationmode none
attr title "packet popped, vector(packetBytes)"
vector 144 CampusNetwork.A.ppp[3].ppp.queue queueingTime:vector ETV
attr interpolationmode none
attr source queueingTime(packetPopped)
attr title "queueing times, vector"
attr unit s
vector 145 CampusNetwork.A.ppp[3].ppp txPk:vector(packetBytes) ETV
attr interpolationmode none
attr source packetSentToLower
attr title "packets transmitted, vector(packetBytes)"
vector 146 CampusNetwork.RA2.ppp[0].ppp rxPkOk:vector(packetBytes) ETV
attr interpolationmode none
attr source rxPkOk
attr title "packets received OK, vector(packetBytes)"
vector 147 CampusNetwork.RA2.ppp[0].ppp passedUpPk:vector(packetBytes) ETV
attr interpolationmode none
attr source packetSentToUpper
attr title "packets passed to higher layer, vector(packetBytes)"
vector 148 CampusNetwork.RB3.ppp[0].ppp rcvdPkFromHl:vector(packetBytes) ETV
attr interpolationmode none
attr source packetReceivedFromUpper
attr title "packets received from higher layer, vector(packetBytes)"
vector 149 CampusNetwork.RB3.ppp[0].ppp.queue packetPushed:vector(packetBytes) ETV
attr interpolationmode none
attr title "packet pushed, vector(packetBytes)"
vector 150 CampusNetwork.RB3.ppp[0].ppp.queue queueLength:vector ETV
attr interpolationmode sample-hold
attr source "count(packetPushed) - count(packetPopped) - count(packetRemoved) - count(packetDropped)"
attr title "queue length, vector"
vector 151 CampusNetwork.RB3.ppp[0].ppp.queue packetPopped:vector(packetBytes) ETV
attr interpolationmode none
attr title "packet popped, vector(packetBytes)"
vector 152 CampusNetwork.RB3.ppp[0].ppp.queue queueingTime:vector ETV
attr interpolationmode none
attr source queueingTime(packetPopped)
attr title "queueing times, vector"
attr unit s
vector 153 CampusNetwork.RB3.ppp[0].ppp txPk:vector(packetBytes) ETV
attr interpolationmode none
attr source packetSentToLower
attr title "packets transmitted, vector(packetBytes)"
vector 154 CampusNetwork.B.ppp[4].ppp rxPkOk:vector(packetBytes) ETV
attr interpolationmode none
attr source rxPkOk
attr title "packets received OK, vector(packetBytes)"
vector 155 CampusNetwork.B.ppp[4].ppp passedUpPk:vector(packetBytes) ETV
attr interpolationmode none
attr source packetSentToUpper
attr title "packets passed to higher layer, vector(packetBytes)"
vector 156 CampusNetwork.RA5.ppp[0].ppp rcvdPkFromHl:vector(packetBytes) ETV
attr interpolationmode none
attr source packetReceivedFromUpper
attr title "packets received from higher layer, vector(packetBytes)"
vector 157 CampusNetwork.RA5.ppp[0].ppp.queue packetPushed:vector(packetBytes) ETV
attr interpolationmode none
attr title "packet pushed, vector(packetBytes)"
vector 158 CampusNetwork.RA5.ppp[0].ppp.queue queueLength:vector ETV
attr interpolationmode sample-hold
attr source "count(packetPushed) - count(packetPopped) - count(packetRemoved) - count(packetDropped)"
attr title "queue length, vector"
vector 159 CampusNetwork.RA5.ppp[0].ppp.queue packetPopped:vector(packetBytes) ETV
attr interpolationmode none
attr title "packet popped, vector(packetBytes)"
vector 160 CampusNetwork.RA5.ppp[0].ppp.queue queueingTime:vector ETV
attr interpolationmode none
attr source queueingTime(packetPopped)
attr title "queueing times, vector"
attr unit s
vector 161 CampusNetwork.RA5.ppp[0].ppp txPk:vector(packetBytes) ETV
attr interpolationmode none
attr source packetSentToLower
attr title "packets transmitted, vector(packetBytes)"
vector 162 CampusNetwork.A.ppp[6].ppp rxPkOk:vector(packetBytes) ETV
attr interpolationmode none
attr source rxPkOk
attr title "packets received OK, vector(packetBytes)"
vector 163 CampusNetwork.A.ppp[6].ppp passedUpPk:vector(packetBytes) ETV
attr interpolationmode none
attr source packetSentToUpper
attr title "packets passed to higher layer, vector(packetBytes)"
vector 164 CampusNetwork.RA2.ppp[0].ppp rcvdPkFromHl:vector(packetBytes) ETV
attr interpolationmode none
attr source packetReceivedFromUpper
attr title "packets received from higher layer, vector(packetBytes)"
vector 165 CampusNetwork.RA2.ppp[0].ppp.queue packetPushed:vector(packetBytes) ETV
attr interpolationmode none
attr title "packet pushed, vector(packetBytes)"
vector 166 CampusNetwork.RA2.ppp[0].ppp.queue queueLength:vector ETV
attr interpolationmode sample-hold
attr source "count(packetPushed) - count(packetPopped) - count(packetRemoved) - count(packetDropped)"
attr title "queue length, vector"
vector 167 CampusNetwork.RA2.ppp[0].ppp.queue packetPopped:vector(packetBytes) ETV
attr interpolationmode none
attr title "packet popped, vector(packetBytes)"
vector 168 CampusNetwork.RA2.ppp[0].ppp.queue queueingTime:vector ETV
attr interpolationmode none
attr source queueingTime(packetPopped)
attr title "queueing times, vector"
attr unit s
vector 169 CampusNetwork.RA2.ppp[0].ppp txPk:vector(packetBytes) ETV
attr interpolationmode none
attr source packetSentToLower
attr title "packets transmitted, vector(packetBytes)"
vector 170 CampusNetwork.A.ppp[3].ppp rxPkOk:vector(packetBytes) ETV
attr interpolationmode none
attr source rxPkOk
attr title "packets received OK, vector(packetBytes)"
vector 171 CampusNetwork.A.ppp[3].ppp passedUpPk:vector(packetBytes) ETV
attr interpolationmode none
attr source packetSentToUpper
attr title "packets passed to higher layer, vector(packetBytes)"
vector 172 CampusNetwork.HA11.app[0] packetSent:vector(packetBytes) ETV
attr interpolationmode none
attr source packetSent
attr title "packets sent, vector(packetBytes)"
vector 173 CampusNetwork.HA21.app[0] packetSent:vector(packetBytes) ETV
attr interpolationmode none
attr source packetSent
attr title "packets sent, vector(packetBytes)"
vector 174 CampusNetwork.HA31.app[0] packetSent:vector(packetBytes) ETV
attr interpolationmode none
attr source packetSent
attr title "packets sent, vector(packetBytes)"
vector 175 CampusNetwork.HA41.app[0] packetSent:vector(packetBytes) ETV
attr interpolationmode none
attr source packetSent
attr title "packets sent, vector(packetBytes)"
vector 176 CampusNetwork.HA51.app[0] packetSent:vector(packetBytes) ETV
attr interpolationmode none
attr source packetSent
attr title "packets sent, vector(packetBytes)"
vector 177 CampusNetwork.HB11.app[0] packetSent:vector(packetBytes) ETV
attr interpolationmode none
attr source packetSent
attr title "packets sent, vector(packetBytes)"
vector 178 CampusNetwork.HB21.app[0] packetSent:vector(packetBytes) ETV
attr interpolationmode none
attr source packetSent
attr title "packets sent, vector(packetBytes)"
vector 179 CampusNetwork.HB31.app[0] packetSent:vector(packetBytes) ETV
attr interpolationmode none
attr source packetSent
attr title "packets sent, vector(packetBytes)"
vector 180 CampusNetwork.HC11.app[0] packetSent:vector(packetBytes) ETV
attr interpolationmode none
attr source packetSent
attr title "packets sent, vector(packetBytes)"
vector 181 CampusNetwork.HA11.udp packetSent:vector(packetBytes) ETV
attr interpolationmode none
attr source packetSent
attr title "packets sent, vector(packetBytes)"
vector 182 CampusNetwork.HA21.udp packetSent:vector(packetBytes) ETV
attr interpolationmode none
attr source packetSent
attr title "packets sent, vector(packetBytes)"
vector 183 CampusNetwork.HA31.udp packetSent:vector(packetBytes) ETV
attr interpolationmode none
attr source packetSent
attr title "packets sent, vector(packetBytes)"
vector 184 CampusNetwork.HA41.udp packetSent:vector(packetBytes) ETV
attr interpolationmode none
attr source packetSent
attr title "packets sent, vector(packetBytes)"
vector 185 CampusNetwork.HA51.udp packetSent:vector(packetBytes) ETV
attr interpolationmode none
attr source packetSent
attr title "packets sent, vector(packetBytes)"
vector 186 CampusNetwork.HB11.udp packetSent:vector(packetBytes) ETV
attr interpolationmode none
attr source packetSent
attr title "packets sent, vector(packetBytes)"
vector 187 CampusNetwork.HB21.udp packetSent:vector(packetBytes) ETV
attr interpolationmode none
attr source packetSent
attr title "packets sent, vector(packetBytes)"
vector 188 CampusNetwork.HB31.udp packetSent:vector(packetBytes) ETV
attr interpolationmode none
attr source packetSent
attr title "packets sent, vector(packetBytes)"
vector 189 CampusNetwork.HC11.udp packetSent:vector(packetBytes) ETV
attr interpolationmode none
attr source packetSent
attr title "packets sent, vector(packetBytes)"
vector 190 CampusNetwork.HA11.ipv4.arp arpRequestSent:vector(packetBytes) ETV
attr source arpRequestSent
attr title "ARP request sent, vector(packetBytes)"
vector 191 CampusNetwork.HA21.ipv4.arp arpRequestSent:vector(packetBytes) ETV
attr source arpRequestSent
attr title "ARP request sent, vector(packetBytes)"
vector 192 CampusNetwork.HA31.ipv4.arp arpRequestSent:vector(packetBytes) ETV
attr source arpRequestSent
attr title "ARP request sent, vector(packetBytes)"
vector 193 CampusNetwork.HA41.ipv4.arp arpRequestSent:vector(packetBytes) ETV
attr source arpRequestSent
attr title "ARP request sent, vector(packetBytes)"
vector 194 CampusNetwork.HA51.ipv4.arp arpRequestSent:vector(packetBytes) ETV
attr source arpRequestSent
attr title "ARP request sent, vector(packetBytes)"
vector 195 CampusNetwork.HB11.ipv4.arp arpRequestSent:vector(packetBytes) ETV
attr source arpRequestSent
attr title "ARP request sent, vector(packetBytes)"
vector 196 CampusNetwork.HB21.ipv4.arp arpRequestSent:vector(packetBytes) ETV
attr source arpRequestSent
attr title "ARP request sent, vector(packetBytes)"
vector 197 CampusNetwork.HB31.ipv4.arp arpRequestSent:vector(packetBytes) ETV
attr source arpRequestSent
attr title "ARP request sent, vector(packetBytes)"
vector 198 CampusNetwork.HC11.ipv4.arp arpRequestSent:vector(packetBytes) ETV
attr source arpRequestSent
attr title "ARP request sent, vector(packetBytes)"
vector 199 CampusNetwork.HA11.eth[0].encap encapPk:vector(packetBytes) ETV
attr interpolationmode none
attr source encapPk
attr title "packets encapsulated, vector(packetBytes)"
vector 200 CampusNetwork.HA21.eth[0].encap encapPk:vector(packetBytes) ETV
attr interpolationmode none
attr source encapPk
attr title "packets encapsulated, vector(packetBytes)"
vector 201 CampusNetwork.HA31.eth[0].encap encapPk:vector(packetBytes) ETV
attr interpolationmode none
attr source encapPk
attr title "packets encapsulated, vector(packetBytes)"
vector 202 CampusNetwork.HA41.eth[0].encap encapPk:vector(packetBytes) ETV
attr interpolationmode none
attr source encapPk
attr title "packets encapsulated, vector(packetBytes)"
vector 203 CampusNetwork.HA51.eth[0].encap encapPk:vector(packetBytes) ETV
attr interpolationmode none
attr source encapPk
attr title "packets encapsulated, vector(packetBytes)"
vector 204 CampusNetwork.HB11.eth[0].encap encapPk:vector(packetBytes) ETV
attr interpolationmode none
attr source encapPk
attr title "packets encapsulated, vector(packetBytes)"
vector 205 CampusNetwork.HB21.eth[0].encap encapPk:vector(packetBytes) ETV
attr interpolationmode none
attr source encapPk
attr title "packets encapsulated, vector(packetBytes)"
vector 206 CampusNetwork.HB31.eth[0].encap encapPk:vector(packetBytes) ETV
attr interpolationmode none
attr source encapPk
attr title "packets encapsulated, vector(packetBytes)"
vector 207 CampusNetwork.HC11.eth[0].encap encapPk:vector(packetBytes) ETV
attr interpolationmode none
attr source encapPk
attr title "packets encapsulated, vector(packetBytes)"
vector 208 CampusNetwork.HA11.eth[0].mac packetReceivedFromUpper:vector(packetBytes) ETV
attr interpolationmode none
attr source packetReceivedFromUpper
attr title "packet bytes from higher layer, vector(packetBytes)"
vector 209 CampusNetwork.HA11.eth[0].mac.queue packetPushed:vector(packetBytes) ETV
attr interpolationmode none
attr source localSignal(packetPushed)
attr title "packets pushed, vector(packetBytes)"
vector 210 CampusNetwork.HA11.eth[0].mac.queue queueLength:vector ETV
attr interpolationmode sample-hold
attr source "count(localSignal(packetPushed)) - count(localSignal(packetPopped)) - count(localSignal(packetRemoved)) - count(packetDropped)"
attr title "queue length, vector"
vector 211 CampusNetwork.HA11.eth[0].mac.queue.classifier packetPushed:vector(packetBytes) ETV
attr interpolationmode none
attr title "packets pushed, vector(packetBytes)"
vector 212 CampusNetwork.HA11.eth[0].mac.queue.dataQueue packetPushed:vector(packetBytes) ETV
attr interpolationmode none
attr title "packet pushed, vector(packetBytes)"
vector 213 CampusNetwork.HA11.eth[0].mac.queue.dataQueue queueLength:vector ETV
attr interpolationmode sample-hold
attr source "count(packetPushed) - count(packetPopped) - count(packetRemoved) - count(packetDropped)"
attr title "queue length, vector"
vector 214 CampusNetwork.HA11.eth[0].mac.queue.dataQueue packetPopped:vector(packetBytes) ETV
attr interpolationmode none
attr title "packet popped, vector(packetBytes)"
vector 215 CampusNetwork.HA11.eth[0].mac.queue.dataQueue queueingTime:vector ETV
attr interpolationmode none
attr source queueingTime(packetPopped)
attr title "queueing times, vector"
attr unit s
vector 216 CampusNetwork.HA11.eth[0].mac.queue queueingTime:vector ETV
attr interpolationmode none
attr source queueingTime(packetPopped)
attr title "queueing times, vector"
attr unit s
vector 217 CampusNetwork.HA11.eth[0].mac.queue.scheduler packetPopped:vector(packetBytes) ETV
attr interpolationmode none
attr title "packets popped, vector(packetBytes)"
vector 218 CampusNetwork.HA11.eth[0].mac.queue packetPopped:vector(packetBytes) ETV
attr interpolationmode none
attr source localSignal(packetPopped)
attr title "packets popped, vector(packetBytes)"
vector 219 CampusNetwork.HA21.eth[0].mac packetReceivedFromUpper:vector(packetBytes) ETV
attr interpolationmode none
attr source packetReceivedFromUpper
attr title "packet bytes from higher layer, vector(packetBytes)"
vector 220 CampusNetwork.HA21.eth[0].mac.queue packetPushed:vector(packetBytes) ETV
attr interpolationmode none
attr source localSignal(packetPushed)
attr title "packets pushed, vector(packetBytes)"
vector 221 CampusNetwork.HA21.eth[0].mac.queue queueLength:vector ETV
attr interpolationmode sample-hold
attr source "count(localSignal(packetPushed)) - count(localSignal(packetPopped)) - count(localSignal(packetRemoved)) - count(packetDropped)"
attr title "queue length, vector"
vector 222 CampusNetwork.HA21.eth[0].mac.queue.classifier packetPushed:vector(packetBytes) ETV
attr interpolationmode none
attr title "packets pushed, vector(packetBytes)"
vector 223 CampusNetwork.HA21.eth[0].mac.queue.dataQueue packetPushed:vector(packetBytes) ETV
attr interpolationmode none
attr title "packet pushed, vector(packetBytes)"
vector 224 CampusNetwork.HA21.eth[0].mac.queue.dataQueue queueLength:vector ETV
attr interpolationmode sample-hold
attr source "count(packetPushed) - count(packetPopped) - count(packetRemoved) - count(packetDropped)"
attr title "queue length, vector"
vector 225 CampusNetwork.HA21.eth[0].mac.queue.dataQueue packetPopped:vector(packetBytes) ETV
attr interpolationmode none
attr title "packet popped, vector(packetBytes)"
vector 226 CampusNetwork.HA21.eth[0].mac.queue.dataQueue queueingTime:vector ETV
attr interpolationmode none
attr source queueingTime(packetPopped)
attr title "queueing times, vector"
attr unit s
vector 227 CampusNetwork.HA21.eth[0].mac.queue queueingTime:vector ETV
attr interpolationmode none
attr source queueingTime(packetPopped)
attr title "queueing times, vector"
attr unit s
vector 228 CampusNetwork.HA21.eth[0].mac.queue.scheduler packetPopped:vector(packetBytes) ETV
attr interpolationmode none
attr title "packets popped, vector(packetBytes)"
vector 229 CampusNetwork.HA21.eth[0].mac.queue packetPopped:vector(packetBytes) ETV
attr interpolationmode none
attr source localSignal(packetPopped)
attr title "packets popped, vector(packetBytes)"
vector 230 CampusNetwork.HA31.eth[0].mac packetReceivedFromUpper:vector(packetBytes) ETV
attr interpolationmode none
attr source packetReceivedFromUpper
attr title "packet bytes from higher layer, vector(packetBytes)"
vector 231 CampusNetwork.HA31.eth[0].mac.queue packetPushed:vector(packetBytes) ETV
attr interpolationmode none
attr source localSignal(packetPushed)
attr title "packets pushed, vector(packetBytes)"
vector 232 CampusNetwork.HA31.eth[0].mac.queue queueLength:vector ETV
attr interpolationmode sample-hold
attr source "count(localSignal(packetPushed)) - count(localSignal(packetPopped)) - count(localSignal(packetRemoved)) - count(packetDropped)"
attr title "queue length, vector"
vector 233 CampusNetwork.HA31.eth[0].mac.queue.classifier packetPushed:vector(packetBytes) ETV
attr interpolationmode none
attr title "packets pushed, vector(packetBytes)"
vector 234 CampusNetwork.HA31.eth[0].mac.queue.dataQueue packetPushed:vector(packetBytes) ETV
attr interpolationmode none
attr title "packet pushed, vector(packetBytes)"
vector 235 CampusNetwork.HA31.eth[0].mac.queue.dataQueue queueLength:vector ETV
attr interpolationmode sample-hold
attr source "count(packetPushed) - count(packetPopped) - count(packetRemoved) - count(packetDropped)"
attr title "queue length, vector"
vector 236 CampusNetwork.HA31.eth[0].mac.queue.dataQueue packetPopped:vector(packetBytes) ETV
attr interpolationmode none
attr title "packet popped, vector(packetBytes)"
vector 237 CampusNetwork.HA31.eth[0].mac.queue.dataQueue queueingTime:vector ETV
attr interpolationmode none
attr source queueingTime(packetPopped)
attr title "queueing times, vector"
attr unit s
vector 238 CampusNetwork.HA31.eth[0].mac.queue queueingTime:vector ETV
attr interpolationmode none
attr source queueingTime(packetPopped)
attr title "queueing times, vector"
attr unit s
vector 239 CampusNetwork.HA31.eth[0].mac.queue.scheduler packetPopped:vector(packetBytes) ETV
attr interpolationmode none
attr title "packets popped, vector(packetBytes)"
vector 240 CampusNetwork.HA31.eth[0].mac.queue packetPopped:vector(packetBytes) ETV
attr interpolationmode none
attr source localSignal(packetPopped)
attr title "packets popped, vector(packetBytes)"
vector 241 CampusNetwork.HA41.eth[0].mac packetReceivedFromUpper:vector(packetBytes) ETV
attr interpolationmode none
attr source packetReceivedFromUpper
attr title "packet bytes from higher layer, vector(packetBytes)"
vector 242 CampusNetwork.HA41.eth[0].mac.queue packetPushed:vector(packetBytes) ETV
attr interpolationmode none
attr source localSignal(packetPushed)
attr title "packets pushed, vector(packetBytes)"
vector 243 CampusNetwork.HA41.eth[0].mac.queue queueLength:vector ETV
attr interpolationmode sample-hold
attr source "count(localSignal(packetPushed)) - count(localSignal(packetPopped)) - count(localSignal(packetRemoved)) - count(packetDropped)"
attr title "queue length, vector"
vector 244 CampusNetwork.HA41.eth[0].mac.queue.classifier packetPushed:vector(packetBytes) ETV
attr interpolationmode none
attr title "packets pushed, vector(packetBytes)"
vector 245 CampusNetwork.HA41.eth[0].mac.queue.dataQueue packetPushed:vector(packetBytes) ETV
attr interpolationmode none
attr title "packet pushed, vector(packetBytes)"
vector 246 CampusNetwork.HA41.eth[0].mac.queue.dataQueue queueLength:vector ETV
attr interpolationmode sample-hold
attr source "count(packetPushed) - count(packetPopped) - count(packetRemoved) - count(packetDropped)"
attr title "queue length, vector"
vector 247 CampusNetwork.HA41.eth[0].mac.queue.dataQueue packetPopped:vector(packetBytes) ETV
attr interpolationmode none
attr title "packet popped, vector(packetBytes)"
vector 248 CampusNetwork.HA41.eth[0].mac.queue.dataQueue queueingTime:vector ETV
attr interpolationmode none
attr source queueingTime(packetPopped)
attr title "queueing times, vector"
attr unit s
vector 249 CampusNetwork.HA41.eth[0].mac.queue queueingTime:vector ETV
attr interpolationmode none
attr source queueingTime(packetPopped)
attr title "queueing times, vector"
attr unit s
vector 250 CampusNetwork.HA41.eth[0].mac.queue.scheduler packetPopped:vector(packetBytes) ETV
attr interpolationmode none
attr title "packets popped, vector(packetBytes)"
vector 251 CampusNetwork.HA41.eth[0].mac.queue packetPopped:vector(packetBytes) ETV
attr interpolationmode none
attr source localSignal(packetPopped)
attr title "packets popped, vector(packetBytes)"
vector 252 CampusNetwork.HA51.eth[0].mac packetReceivedFromUpper:vector(packetBytes) ETV
attr interpolationmode none
attr source packetReceivedFromUpper
attr title "packet bytes from higher layer, vector(packetBytes)"
vector 253 CampusNetwork.HA51.eth[0].mac.queue packetPushed:vector(packetBytes) ETV
attr interpolationmode none
attr source localSignal(packetPushed)
attr title "packets pushed, vector(packetBytes)"
vector 254 CampusNetwork.HA51.eth[0].mac.queue queueLength:vector ETV
attr interpolationmode sample-hold
attr source "count(localSignal(packetPushed)) - count(localSignal(packetPopped)) - count(localSignal(packetRemoved)) - count(packetDropped)"
attr title "queue length, vector"
vector 255 CampusNetwork.HA51.eth[0].mac.queue.classifier packetPushed:vector(packetBytes) ETV
attr interpolationmode none
attr title "packets pushed, vector(packetBytes)"
vector 256 CampusNetwork.HA51.eth[0].mac.queue.dataQueue packetPushed:vector(packetBytes) ETV
attr interpolationmode none
attr title "packet pushed, vector(packetBytes)"
vector 257 CampusNetwork.HA51.eth[0].mac.queue.dataQueue queueLength:vector ETV
attr interpolationmode sample-hold
attr source "count(packetPushed) - count(packetPopped) - count(packetRemoved) - count(packetDropped)"
attr title "queue length, vector"
vector 258 CampusNetwork.HA51.eth[0].mac.queue.dataQueue packetPopped:vector(packetBytes) ETV
attr interpolationmode none
attr title "packet popped, vector(packetBytes)"
vector 259 CampusNetwork.HA51.eth[0].mac.queue.dataQueue queueingTime:vector ETV
attr interpolationmode none
attr source queueingTime(packetPopped)
attr title "queueing times, vector"
attr unit s
vector 260 CampusNetwork.HA51.eth[0].mac.queue queueingTime:vector ETV
attr interpolationmode none
attr source queueingTime(packetPopped)
attr title "queueing times, vector"
attr unit s
vector 261 CampusNetwork.HA51.eth[0].mac.queue.scheduler packetPopped:vector(packetBytes) ETV
attr interpolationmode none
attr title "packets popped, vector(packetBytes)"
vector 262 CampusNetwork.HA51.eth[0].mac.queue packetPopped:vector(packetBytes) ETV
attr interpolationmode none
attr source localSignal(packetPopped)
attr title "packets popped, vector(packetBytes)"
vector 263 CampusNetwork.HB11.eth[0].mac packetReceivedFromUpper:vector(packetBytes) ETV
attr interpolationmode none
attr source packetReceivedFromUpper
attr title "packet bytes from higher layer, vector(packetBytes)"
vector 264 CampusNetwork.HB11.eth[0].mac.queue packetPushed:vector(packetBytes) ETV
attr interpolationmode none
attr source localSignal(packetPushed)
attr title "packets pushed, vector(packetBytes)"
vector 265 CampusNetwork.HB11.eth[0].mac.queue queueLength:vector ETV
attr interpolationmode sample-hold
attr source "count(localSignal(packetPushed)) - count(localSignal(packetPopped)) - count(localSignal(packetRemoved)) - count(packetDropped)"
attr title "queue length, vector"
vector 266 CampusNetwork.HB11.eth[0].mac.queue.classifier packetPushed:vector(packetBytes) ETV
attr interpolationmode none
attr title "packets pushed, vector(packetBytes)"
vector 267 CampusNetwork.HB11.eth[0].mac.queue.dataQueue packetPushed:vector(packetBytes) ETV
attr interpolationmode none
attr title "packet pushed, vector(packetBytes)"
vector 268 CampusNetwork.HB11.eth[0].mac.queue.dataQueue queueLength:vector ETV
attr interpolationmode sample-hold
attr source "count(packetPushed) - count(packetPopped) - count(packetRemoved) - count(packetDropped)"
attr title "queue length, vector"
vector 269 CampusNetwork.HB11.eth[0].mac.queue.dataQueue packetPopped:vector(packetBytes) ETV
attr interpolationmode none
attr title "packet popped, vector(packetBytes)"
vector 270 CampusNetwork.HB11.eth[0].mac.queue.dataQueue queueingTime:vector ETV
attr interpolationmode none
attr source queueingTime(packetPopped)
attr title "queueing times, vector"
attr unit s
vector 271 CampusNetwork.HB11.eth[0].mac.queue queueingTime:vector ETV
attr interpolationmode none
attr source queueingTime(packetPopped)
attr title "queueing times, vector"
attr unit s
vector 272 CampusNetwork.HB11.eth[0].mac.queue.scheduler packetPopped:vector(packetBytes) ETV
attr interpolationmode none
attr title "packets popped, vector(packetBytes)"
vector 273 CampusNetwork.HB11.eth[0].mac.queue packetPopped:vector(packetBytes) ETV
attr interpolationmode none
attr source localSignal(packetPopped)
attr title "packets popped, vector(packetBytes)"
vector 274 CampusNetwork.HB21.eth[0].mac packetReceivedFromUpper:vector(packetBytes) ETV
attr interpolationmode none
attr source packetReceivedFromUpper
attr title "packet bytes from higher layer, vector(packetBytes)"
vector 275 CampusNetwork.HB21.eth[0].mac.queue packetPushed:vector(packetBytes) ETV
attr interpolationmode none
attr source localSignal(packetPushed)
attr title "packets pushed, vector(packetBytes)"
vector 276 CampusNetwork.HB21.eth[0].mac.queue queueLength:vector ETV
attr interpolationmode sample-hold
attr source "count(localSignal(packetPushed)) - count(localSignal(packetPopped)) - count(localSignal(packetRemoved)) - count(packetDropped)"
attr title "queue length, vector"
vector 277 CampusNetwork.HB21.eth[0].mac.queue.classifier packetPushed:vector(packetBytes) ETV
attr interpolationmode none
attr title "packets pushed, vector(packetBytes)"
vector 278 CampusNetwork.HB21.eth[0].mac.queue.dataQueue packetPushed:vector(packetBytes) ETV
attr interpolationmode none
attr title "packet pushed, vector(packetBytes)"
vector 279 CampusNetwork.HB21.eth[0].mac.queue.dataQueue queueLength:vector ETV
attr interpolationmode sample-hold
attr source "count(packetPushed) - count(packetPopped) - count(packetRemoved) - count(packetDropped)"
attr title "queue length, vector"
vector 280 CampusNetwork.HB21.eth[0].mac.queue.dataQueue packetPopped:vector(packetBytes) ETV
attr interpolationmode none
attr title "packet popped, vector(packetBytes)"
vector 281 CampusNetwork.HB21.eth[0].mac.queue.dataQueue queueingTime:vector ETV
attr interpolationmode none
attr source queueingTime(packetPopped)
attr title "queueing times, vector"
attr unit s
vector 282 CampusNetwork.HB21.eth[0].mac.queue queueingTime:vector ETV
attr interpolationmode none
attr source queueingTime(packetPopped)
attr title "queueing times, vector"
attr unit s
vector 283 CampusNetwork.HB21.eth[0].mac.queue.scheduler packetPopped:vector(packetBytes) ETV
attr interpolationmode none
attr title "packets popped, vector(packetBytes)"
vector 284 CampusNetwork.HB21.eth[0].mac.queue packetPopped:vector(packetBytes) ETV
attr interpolationmode none
attr source localSignal(packetPopped)
attr title "packets popped, vector(packetBytes)"
vector 285 CampusNetwork.HB31.eth[0].mac packetReceivedFromUpper:vector(packetBytes) ETV
attr interpolationmode none
attr source packetReceivedFromUpper
attr title "packet bytes from higher layer, vector(packetBytes)"
vector 286 CampusNetwork.HB31.eth[0].mac.queue packetPushed:vector(packetBytes) ETV
attr interpolationmode none
attr source localSignal(packetPushed)
attr title "packets pushed, vector(packetBytes)"
vector 287 CampusNetwork.HB31.eth[0].mac.queue queueLength:vector ETV
attr interpolationmode sample-hold
attr source "count(localSignal(packetPushed)) - count(localSignal(packetPopped)) - count(localSignal(packetRemoved)) - count(packetDropped)"
attr title "queue length, vector"
vector 288 CampusNetwork.HB31.eth[0].mac.queue.classifier packetPushed:vector(packetBytes) ETV
attr interpolationmode none
attr title "packets pushed, vector(packetBytes)"
vector 289 CampusNetwork.HB31.eth[0].mac.queue.dataQueue packetPushed:vector(packetBytes) ETV
attr interpolationmode none
attr title "packet pushed, vector(packetBytes)"
vector 290 CampusNetwork.HB31.eth[0].mac.queue.dataQueue queueLength:vector ETV
attr interpolationmode sample-hold
attr source "count(packetPushed) - count(packetPopped) - count(packetRemoved) - count(packetDropped)"
attr title "queue length, vector"
vector 291 CampusNetwork.HB31.eth[0].mac.queue.dataQueue packetPopped:vector(packetBytes) ETV
attr interpolationmode none
attr title "packet popped, vector(packetBytes)"
vector 292 CampusNetwork.HB31.eth[0].mac.queue.dataQueue queueingTime:vector ETV
attr interpolationmode none
attr source queueingTime(packetPopped)
attr title "queueing times, vector"
attr unit s
vector 293 CampusNetwork.HB31.eth[0].mac.queue queueingTime:vector ETV
attr interpolationmode none
attr source queueingTime(packetPopped)
attr title "queueing times, vector"
attr unit s
vector 294 CampusNetwork.HB31.eth[0].mac.queue.scheduler packetPopped:vector(packetBytes) ETV
attr interpolationmode none
attr title "packets popped, vector(packetBytes)"
vector 295 CampusNetwork.HB31.eth[0].mac.queue packetPopped:vector(packetBytes) ETV
attr interpolationmode none
attr source localSignal(packetPopped)
attr title "packets popped, vector(packetBytes)"
vector 296 CampusNetwork.HC11.eth[0].mac packetReceivedFromUpper:vector(packetBytes) ETV
attr interpolationmode none
attr source packetReceivedFromUpper
attr title "packet bytes from higher layer, vector(packetBytes)"
vector 297 CampusNetwork.HC11.eth[0].mac.queue packetPushed:vector(packetBytes) ETV
attr interpolationmode none
attr source localSignal(packetPushed)
attr title "packets pushed, vector(packetBytes)"
vector 298 CampusNetwork.HC11.eth[0].mac.queue queueLength:vector ETV
attr interpolationmode sample-hold
attr source "count(localSignal(packetPushed)) - count(localSignal(packetPopped)) - count(localSignal(packetRemoved)) - count(packetDropped)"
attr title "queue length, vector"
vector 299 CampusNetwork.HC11.eth[0].mac.queue.classifier packetPushed:vector(packetBytes) ETV
attr interpolationmode none
attr title "packets pushed, vector(packetBytes)"
vector 300 CampusNetwork.HC11.eth[0].mac.queue.dataQueue packetPushed:vector(packetBytes) ETV
attr interpolationmode none
attr title "packet pushed, vector(packetBytes)"
vector 301 CampusNetwork.HC11.eth[0].mac.queue.dataQueue queueLength:vector ETV
attr interpolationmode sample-hold
attr source "count(packetPushed) - count(packetPopped) - count(packetRemoved) - count(packetDropped)"
attr title "queue length, vector"
vector 302 CampusNetwork.HC11.eth[0].mac.queue.dataQueue packetPopped:vector(packetBytes) ETV
attr interpolationmode none
attr title "packet popped, vector(packetBytes)"
vector 303 CampusNetwork.HC11.eth[0].mac.queue.dataQueue queueingTime:vector ETV
attr interpolationmode none
attr source queueingTime(packetPopped)
attr title "queueing times, vector"
attr unit s
vector 304 CampusNetwork.HC11.eth[0].mac.queue queueingTime:vector ETV
attr interpolationmode none
attr source queueingTime(packetPopped)
attr title "queueing times, vector"
attr unit s
vector 305 CampusNetwork.HC11.eth[0].mac.queue.scheduler packetPopped:vector(packetBytes) ETV
attr interpolationmode none
attr title "packets popped, vector(packetBytes)"
vector 306 CampusNetwork.HC11.eth[0].mac.queue packetPopped:vector(packetBytes) ETV
attr interpolationmode none
attr source localSignal(packetPopped)
attr title "packets popped, vector(packetBytes)"
vector 307 CampusNetwork.HA11.eth[0].mac txPk:vector(packetBytes) ETV
attr interpolationmode none
attr source packetSentToLower
attr title "packets transmitted, vector(packetBytes)"
vector 308 CampusNetwork.HA21.eth[0].mac txPk:vector(packetBytes) ETV
attr interpolationmode none
attr source packetSentToLower
attr title "packets transmitted, vector(packetBytes)"
vector 309 CampusNetwork.HA31.eth[0].mac txPk:vector(packetBytes) ETV
attr interpolationmode none
attr source packetSentToLower
attr title "packets transmitted, vector(packetBytes)"
vector 310 CampusNetwork.HA41.eth[0].mac txPk:vector(packetBytes) ETV
attr interpolationmode none
attr source packetSentToLower
attr title "packets transmitted, vector(packetBytes)"
vector 311 CampusNetwork.HA51.eth[0].mac txPk:vector(packetBytes) ETV
attr interpolationmode none
attr source packetSentToLower
attr title "packets transmitted, vector(packetBytes)"
vector 312 CampusNetwork.HB11.eth[0].mac txPk:vector(packetBytes) ETV
attr interpolationmode none
attr source packetSentToLower
attr title "packets transmitted, vector(packetBytes)"
vector 313 CampusNetwork.HB21.eth[0].mac txPk:vector(packetBytes) ETV
attr interpolationmode none
attr source packetSentToLower
attr title "packets transmitted, vector(packetBytes)"
vector 314 CampusNetwork.HB31.eth[0].mac txPk:vector(packetBytes) ETV
attr interpolationmode none
attr source packetSentToLower
attr title "packets transmitted, vector(packetBytes)"
vector 315 CampusNetwork.HC11.eth[0].mac txPk:vector(packetBytes) ETV
attr interpolationmode none
attr source packetSentToLower
attr title "packets transmitted, vector(packetBytes)"
vector 316 CampusNetwork.PA1.eth[0].mac rxPkOk:vector(packetBytes) ETV
attr interpolationmode none
attr source rxPkOk
attr title "packets received OK, vector(packetBytes)"
vector 317 CampusNetwork.PA1.eth[0].mac passedUpPk:vector(packetBytes) ETV
attr interpolationmode none
attr source packetSentToUpper
attr title "packets passed to higher layer, vector(packetBytes)"
vector 318 CampusNetwork.PA2.eth[0].mac rxPkOk:vector(packetBytes) ETV
attr interpolationmode none
attr source rxPkOk
attr title "packets received OK, vector(packetBytes)"
vector 319 CampusNetwork.PA2.eth[0].mac passedUpPk:vector(packetBytes) ETV
attr interpolationmode none
attr source packetSentToUpper
attr title "packets passed to higher layer, vector(packetBytes)"
vector 320 CampusNetwork.PA3.eth[0].mac rxPkOk:vector(packetBytes) ETV
attr interpolationmode none
attr source rxPkOk
attr title "packets received OK, vector(packetBytes)"
vector 321 CampusNetwork.PA3.eth[0].mac passedUpPk:vector(packetBytes) ETV
attr interpolationmode none
attr source packetSentToUpper
attr title "packets passed to higher layer, vector(packetBytes)"
vector 322 CampusNetwork.PA4.eth[0].mac rxPkOk:vector(packetBytes) ETV
attr interpolationmode none
attr source rxPkOk
attr title "packets received OK, vector(packetBytes)"
vector 323 CampusNetwork.PA4.eth[0].mac passedUpPk:vector(packetBytes) ETV
attr interpolationmode none
attr source packetSentToUpper
attr title "packets passed to higher layer, vector(packetBytes)"
vector 324 CampusNetwork.PA5.eth[0].mac rxPkOk:vector(packetBytes) ETV
attr interpolationmode none
attr source rxPkOk
attr title "packets received OK, vector(packetBytes)"
vector 325 CampusNetwork.PA5.eth[0].mac passedUpPk:vector(packetBytes) ETV
attr interpolationmode none
attr source packetSentToUpper
attr title "packets passed to higher layer, vector(packetBytes)"
vector 326 CampusNetwork.PB1.eth[0].mac rxPkOk:vector(packetBytes) ETV
attr interpolationmode none
attr source rxPkOk
attr title "packets received OK, vector(packetBytes)"
vector 327 CampusNetwork.PB1.eth[0].mac passedUpPk:vector(packetBytes) ETV
attr interpolationmode none
attr source packetSentToUpper
attr title "packets passed to higher layer, vector(packetBytes)"
vector 328 CampusNetwork.PB2.eth[0].mac rxPkOk:vector(packetBytes) ETV
attr interpolationmode none
attr source rxPkOk
attr title "packets received OK, vector(packetBytes)"
vector 329 CampusNetwork.PB2.eth[0].mac passedUpPk:vector(packetBytes) ETV
attr interpolationmode none
attr source packetSentToUpper
attr title "packets passed to higher layer, vector(packetBytes)"
vector 330 CampusNetwork.PB3.eth[0].mac rxPkOk:vector(packetBytes) ETV
attr interpolationmode none
attr source rxPkOk
attr title "packets received OK, vector(packetBytes)"
vector 331 CampusNetwork.PB3.eth[0].mac passedUpPk:vector(packetBytes) ETV
attr interpolationmode none
attr source packetSentToUpper
attr title "packets passed to higher layer, vector(packetBytes)"
vector 332 CampusNetwork.PC1.eth[0].mac rxPkOk:vector(packetBytes) ETV
attr interpolationmode none
attr source rxPkOk
attr title "packets received OK, vector(packetBytes)"
vector 333 CampusNetwork.PC1.eth[0].mac passedUpPk:vector(packetBytes) ETV
attr interpolationmode none
attr source packetSentToUpper
attr title "packets passed to higher layer, vector(packetBytes)"
vector 334 CampusNetwork.PA1.eth[1].mac packetReceivedFromUpper:vector(packetBytes) ETV
attr interpolationmode none
attr source packetReceivedFromUpper
attr title "packet bytes from higher layer, vector(packetBytes)"
vector 335 CampusNetwork.PA1.eth[1].mac.queue packetPushed:vector(packetBytes) ETV
attr interpolationmode none
attr source localSignal(packetPushed)
attr title "packets pushed, vector(packetBytes)"
vector 336 CampusNetwork.PA1.eth[1].mac.queue queueLength:vector ETV
attr interpolationmode sample-hold
attr source "count(localSignal(packetPushed)) - count(localSignal(packetPopped)) - count(localSignal(packetRemoved)) - count(packetDropped)"
attr title "queue length, vector"
vector 337 CampusNetwork.PA1.eth[1].mac.queue.classifier packetPushed:vector(packetBytes) ETV
attr interpolationmode none
attr title "packets pushed, vector(packetBytes)"
vector 338 CampusNetwork.PA1.eth[1].mac.queue.dataQueue packetPushed:vector(packetBytes) ETV
attr interpolationmode none
attr title "packet pushed, vector(packetBytes)"
vector 339 CampusNetwork.PA1.eth[1].mac.queue.dataQueue queueLength:vector ETV
attr interpolationmode sample-hold
attr source "count(packetPushed) - count(packetPopped) - count(packetRemoved) - count(packetDropped)"
attr title "queue length, vector"
vector 340 CampusNetwork.PA1.eth[1].mac.queue.dataQueue packetPopped:vector(packetBytes) ETV
attr interpolationmode none
attr title "packet popped, vector(packetBytes)"
vector 341 CampusNetwork.PA1.eth[1].mac.queue.dataQueue queueingTime:vector ETV
attr interpolationmode none
attr source queueingTime(packetPopped)
attr title "queueing times, vector"
attr unit s
vector 342 CampusNetwork.PA1.eth[1].mac.queue queueingTime:vector ETV
attr interpolationmode none
attr source queueingTime(packetPopped)
attr title "queueing times, vector"
attr unit s
vector 343 CampusNetwork.PA1.eth[1].mac.queue.scheduler packetPopped:vector(packetBytes) ETV
attr interpolationmode none
attr title "packets popped, vector(packetBytes)"
vector 344 CampusNetwork.PA1.eth[1].mac.queue packetPopped:vector(packetBytes) ETV
attr interpolationmode none
attr source localSignal(packetPopped)
attr title "packets popped, vector(packetBytes)"
vector 345 CampusNetwork.PA1.eth[2].mac packetReceivedFromUpper:vector(packetBytes) ETV
attr interpolationmode none
attr source packetReceivedFromUpper
attr title "packet bytes from higher layer, vector(packetBytes)"
vector 346 CampusNetwork.PA1.eth[2].mac.queue packetPushed:vector(packetBytes) ETV
attr interpolationmode none
attr source localSignal(packetPushed)
attr title "packets pushed, vector(packetBytes)"
vector 347 CampusNetwork.PA1.eth[2].mac.queue queueLength:vector ETV
attr interpolationmode sample-hold
attr source "count(localSignal(packetPushed)) - count(localSignal(packetPopped)) - count(localSignal(packetRemoved)) - count(packetDropped)"
attr title "queue length, vector"
vector 348 CampusNetwork.PA1.eth[2].mac.queue.classifier packetPushed:vector(packetBytes) ETV
attr interpolationmode none
attr title "packets pushed, vector(packetBytes)"
vector 349 CampusNetwork.PA1.eth[2].mac.queue.dataQueue packetPushed:vector(packetBytes) ETV
attr interpolationmode none
attr title "packet pushed, vector(packetBytes)"
vector 350 CampusNetwork.PA1.eth[2].mac.queue.dataQueue queueLength:vector ETV
attr interpolationmode sample-hold
attr source "count(packetPushed) - count(packetPopped) - count(packetRemoved) - count(packetDropped)"
attr title "queue length, vector"
vector 351 CampusNetwork.PA1.eth[2].mac.queue.dataQueue packetPopped:vector(packetBytes) ETV
attr interpolationmode none
attr title "packet popped, vector(packetBytes)"
vector 352 CampusNetwork.PA1.eth[2].mac.queue.dataQueue queueingTime:vector ETV
attr interpolationmode none
attr source queueingTime(packetPopped)
attr title "queueing times, vector"
attr unit s
vector 353 CampusNetwork.PA1.eth[2].mac.queue queueingTime:vector ETV
attr interpolationmode none
attr source queueingTime(packetPopped)
attr title "queueing times, vector"
attr unit s
vector 354 CampusNetwork.PA1.eth[2].mac.queue.scheduler packetPopped:vector(packetBytes) ETV
attr interpolationmode none
attr title "packets popped, vector(packetBytes)"
vector 355 CampusNetwork.PA1.eth[2].mac.queue packetPopped:vector(packetBytes) ETV
attr interpolationmode none
attr source localSignal(packetPopped)
attr title "packets popped, vector(packetBytes)"
vector 356 CampusNetwork.PA2.eth[1].mac packetReceivedFromUpper:vector(packetBytes) ETV
attr interpolationmode none
attr source packetReceivedFromUpper
attr title "packet bytes from higher layer, vector(packetBytes)"
vector 357 CampusNetwork.PA2.eth[1].mac.queue packetPushed:vector(packetBytes) ETV
attr interpolationmode none
attr source localSignal(packetPushed)
attr title "packets pushed, vector(packetBytes)"
vector 358 CampusNetwork.PA2.eth[1].mac.queue queueLength:vector ETV
attr interpolationmode sample-hold
attr source "count(localSignal(packetPushed)) - count(localSignal(packetPopped)) - count(localSignal(packetRemoved)) - count(packetDropped)"
attr title "queue length, vector"
vector 359 CampusNetwork.PA2.eth[1].mac.queue.classifier packetPushed:vector(packetBytes) ETV
attr interpolationmode none
attr title "packets pushed, vector(packetBytes)"
vector 360 CampusNetwork.PA2.eth[1].mac.queue.dataQueue packetPushed:vector(packetBytes) ETV
attr interpolationmode none
attr title "packet pushed, vector(packetBytes)"
vector 361 CampusNetwork.PA2.eth[1].mac.queue.dataQueue queueLength:vector ETV
attr interpolationmode sample-hold
attr source "count(packetPushed) - count(packetPopped) - count(packetRemoved) - count(packetDropped)"
attr title "queue length, vector"
vector 362 CampusNetwork.PA2.eth[1].mac.queue.dataQueue packetPopped:vector(packetBytes) ETV
attr interpolationmode none
attr title "packet popped, vector(packetBytes)"
vector 363 CampusNetwork.PA2.eth[1].mac.queue.dataQueue queueingTime:vector ETV
attr interpolationmode none
attr source queueingTime(packetPopped)
attr title "queueing times, vector"
attr unit s
vector 364 CampusNetwork.PA2.eth[1].mac.queue queueingTime:vector ETV
attr interpolationmode none
attr source queueingTime(packetPopped)
attr title "queueing times, vector"
attr unit s
vector 365 CampusNetwork.PA2.eth[1].mac.queue.scheduler packetPopped:vector(packetBytes) ETV
attr interpolationmode none
attr title "packets popped, vector(packetBytes)"
vector 366 CampusNetwork.PA2.eth[1].mac.queue packetPopped:vector(packetBytes) ETV
attr interpolationmode none
attr source localSignal(packetPopped)
attr title "packets popped, vector(packetBytes)"
vector 367 CampusNetwork.PA2.eth[2].mac packetReceivedFromUpper:vector(packetBytes) ETV
attr interpolationmode none
attr source packetReceivedFromUpper
attr title "packet bytes from higher layer, vector(packetBytes)"
vector 368 CampusNetwork.PA2.eth[2].mac.queue packetPushed:vector(packetBytes) ETV
attr interpolationmode none
attr source localSignal(packetPushed)
attr title "packets pushed, vector(packetBytes)"
vector 369 CampusNetwork.PA2.eth[2].mac.queue queueLength:vector ETV
attr interpolationmode sample-hold
attr source "count(localSignal(packetPushed)) - count(localSignal(packetPopped)) - count(localSignal(packetRemoved)) - count(packetDropped)"
attr title "queue length, vector"
vector 370 CampusNetwork.PA2.eth[2].mac.queue.classifier packetPushed:vector(packetBytes) ETV
attr interpolationmode none
attr title "packets pushed, vector(packetBytes)"
vector 371 CampusNetwork.PA2.eth[2].mac.queue.dataQueue packetPushed:vector(packetBytes) ETV
attr interpolationmode none
attr title "packet pushed, vector(packetBytes)"
vector 372 CampusNetwork.PA2.eth[2].mac.queue.dataQueue queueLength:vector ETV
attr interpolationmode sample-hold
attr source "count(packetPushed) - count(packetPopped) - count(packetRemoved) - count(packetDropped)"
attr title "queue length, vector"
vector 373 CampusNetwork.PA2.eth[2].mac.queue.dataQueue packetPopped:vector(packetBytes) ETV
attr interpolationmode none
attr title "packet popped, vector(packetBytes)"
vector 374 CampusNetwork.PA2.eth[2].mac.queue.dataQueue queueingTime:vector ETV
attr interpolationmode none
attr source queueingTime(packetPopped)
attr title "queueing times, vector"
attr unit s
vector 375 CampusNetwork.PA2.eth[2].mac.queue queueingTime:vector ETV
attr interpolationmode none
attr source queueingTime(packetPopped)
attr title "queueing times, vector"
attr unit s
vector 376 CampusNetwork.PA2.eth[2].mac.queue.scheduler packetPopped:vector(packetBytes) ETV
attr interpolationmode none
attr title "packets popped, vector(packetBytes)"
vector 377 CampusNetwork.PA2.eth[2].mac.queue packetPopped:vector(packetBytes) ETV
attr interpolationmode none
attr source localSignal(packetPopped)
attr title "packets popped, vector(packetBytes)"
vector 378 CampusNetwork.PA3.eth[1].mac packetReceivedFromUpper:vector(packetBytes) ETV
attr interpolationmode none
attr source packetReceivedFromUpper
attr title "packet bytes from higher layer, vector(packetBytes)"
vector 379 CampusNetwork.PA3.eth[1].mac.queue packetPushed:vector(packetBytes) ETV
attr interpolationmode none
attr source localSignal(packetPushed)
attr title "packets pushed, vector(packetBytes)"
vector 380 CampusNetwork.PA3.eth[1].mac.queue queueLength:vector ETV
attr interpolationmode sample-hold
attr source "count(localSignal(packetPushed)) - count(localSignal(packetPopped)) - count(localSignal(packetRemoved)) - count(packetDropped)"
attr title "queue length, vector"
vector 381 CampusNetwork.PA3.eth[1].mac.queue.classifier packetPushed:vector(packetBytes) ETV
attr interpolationmode none
attr title "packets pushed, vector(packetBytes)"
vector 382 CampusNetwork.PA3.eth[1].mac.queue.dataQueue packetPushed:vector(packetBytes) ETV
attr interpolationmode none
attr title "packet pushed, vector(packetBytes)"
vector 383 CampusNetwork.PA3.eth[1].mac.queue.dataQueue queueLength:vector ETV
attr interpolationmode sample-hold
attr source "count(packetPushed) - count(packetPopped) - count(packetRemoved) - count(packetDropped)"
attr title "queue length, vector"
vector 384 CampusNetwork.PA3.eth[1].mac.queue.dataQueue packetPopped:vector(packetBytes) ETV
attr interpolationmode none
attr title "packet popped, vector(packetBytes)"
vector 385 CampusNetwork.PA3.eth[1].mac.queue.dataQueue queueingTime:vector ETV
attr interpolationmode none
attr source queueingTime(packetPopped)
attr title "queueing times, vector"
attr unit s
vector 386 CampusNetwork.PA3.eth[1].mac.queue queueingTime:vector ETV
attr interpolationmode none
attr source queueingTime(packetPopped)
attr title "queueing times, vector"
attr unit s
vector 387 CampusNetwork.PA3.eth[1].mac.queue.scheduler packetPopped:vector(packetBytes) ETV
attr interpolationmode none
attr title "packets popped, vector(packetBytes)"
vector 388 CampusNetwork.PA3.eth[1].mac.queue packetPopped:vector(packetBytes) ETV
attr interpolationmode none
attr source localSignal(packetPopped)
attr title "packets popped, vector(packetBytes)"
vector 389 CampusNetwork.PA3.eth[2].mac packetReceivedFromUpper:vector(packetBytes) ETV
attr interpolationmode none
attr source packetReceivedFromUpper
attr title "packet bytes from higher layer, vector(packetBytes)"
vector 390 CampusNetwork.PA3.eth[2].mac.queue packetPushed:vector(packetBytes) ETV
attr interpolationmode none
attr source localSignal(packetPushed)
attr title "packets pushed, vector(packetBytes)"
vector 391 CampusNetwork.PA3.eth[2].mac.queue queueLength:vector ETV
attr interpolationmode sample-hold
attr source "count(localSignal(packetPushed)) - count(localSignal(packetPopped)) - count(localSignal(packetRemoved)) - count(packetDropped)"
attr title "queue length, vector"
vector 392 CampusNetwork.PA3.eth[2].mac.queue.classifier packetPushed:vector(packetBytes) ETV
attr interpolationmode none
attr title "packets pushed, vector(packetBytes)"
vector 393 CampusNetwork.PA3.eth[2].mac.queue.dataQueue packetPushed:vector(packetBytes) ETV
attr interpolationmode none
attr title "packet pushed, vector(packetBytes)"
vector 394 CampusNetwork.PA3.eth[2].mac.queue.dataQueue queueLength:vector ETV
attr interpolationmode sample-hold
attr source "count(packetPushed) - count(packetPopped) - count(packetRemoved) - count(packetDropped)"
attr title "queue length, vector"
vector 395 CampusNetwork.PA3.eth[2].mac.queue.dataQueue packetPopped:vector(packetBytes) ETV
attr interpolationmode none
attr title "packet popped, vector(packetBytes)"
vector 396 CampusNetwork.PA3.eth[2].mac.queue.dataQueue queueingTime:vector ETV
attr interpolationmode none
attr source queueingTime(packetPopped)
attr title "queueing times, vector"
attr unit s
vector 397 CampusNetwork.PA3.eth[2].mac.queue queueingTime:vector ETV
attr interpolationmode none
attr source queueingTime(packetPopped)
attr title "queueing times, vector"
attr unit s
vector 398 CampusNetwork.PA3.eth[2].mac.queue.scheduler packetPopped:vector(packetBytes) ETV
attr interpolationmode none
attr title "packets popped, vector(packetBytes)"
vector 399 CampusNetwork.PA3.eth[2].mac.queue packetPopped:vector(packetBytes) ETV
attr interpolationmode none
attr source localSignal(packetPopped)
attr title "packets popped, vector(packetBytes)"
vector 400 CampusNetwork.PA4.eth[1].mac packetReceivedFromUpper:vector(packetBytes) ETV
attr interpolationmode none
attr source packetReceivedFromUpper
attr title "packet bytes from higher layer, vector(packetBytes)"
vector 401 CampusNetwork.PA4.eth[1].mac.queue packetPushed:vector(packetBytes) ETV
attr interpolationmode none
attr source localSignal(packetPushed)
attr title "packets pushed, vector(packetBytes)"
vector 402 CampusNetwork.PA4.eth[1].mac.queue queueLength:vector ETV
attr interpolationmode sample-hold
attr source "count(localSignal(packetPushed)) - count(localSignal(packetPopped)) - count(localSignal(packetRemoved)) - count(packetDropped)"
attr title "queue length, vector"
vector 403 CampusNetwork.PA4.eth[1].mac.queue.classifier packetPushed:vector(packetBytes) ETV
attr interpolationmode none
attr title "packets pushed, vector(packetBytes)"
vector 404 CampusNetwork.PA4.eth[1].mac.queue.dataQueue packetPushed:vector(packetBytes) ETV
attr interpolationmode none
attr title "packet pushed, vector(packetBytes)"
vector 405 CampusNetwork.PA4.eth[1].mac.queue.dataQueue queueLength:vector ETV
attr interpolationmode sample-hold
attr source "count(packetPushed) - count(packetPopped) - count(packetRemoved) - count(packetDropped)"
attr title "queue length, vector"
vector 406 CampusNetwork.PA4.eth[1].mac.queue.dataQueue packetPopped:vector(packetBytes) ETV
attr interpolationmode none
attr title "packet popped, vector(packetBytes)"
vector 407 CampusNetwork.PA4.eth[1].mac.queue.dataQueue queueingTime:vector ETV
attr interpolationmode none
attr source queueingTime(packetPopped)
attr title "queueing times, vector"
attr unit s
vector 408 CampusNetwork.PA4.eth[1].mac.queue queueingTime:vector ETV
attr interpolationmode none
[...]
733	9847859 245 1045 215986 2.00016728 978.00016728 9 64 64 576 36864
734	9848104 245 1046 215987 2.00016728 978.00016728 9 64 64 576 36864
735	9848349 245 1046 215987 2.00016728 978.00016728 9 64 64 576 36864
736	9848594 245 1047 215988 2.00016728 978.00016728 9 64 64 576 36864
737	9848839 245 1047 215988 2.00016728 978.00016728 9 64 64 576 36864
738	9849084 245 1048 215989 2.00016728 978.00016728 9 64 64 576 36864
739	9849329 245 1048 215989 2.00016728 978.00016728 9 64 64 576 36864
740	9849574 14092 1049 220643 2.00016728 998.00028072 514 64 74 37866 2791204
741	9863666 14092 1049 220643 2.00016728 998.00028072 514 64 74 37866 2791204
742	9877758 14092 1050 220644 2.00016728 998.00028072 514 64 74 37866 2791204
743	9891850 14092 1050 220644 2.00016728 998.00028072 514 64 74 37866 2791204
744	9905942 245 1051 215992 2.00016728 978.00016728 9 64 64 576 36864
745	9906187 245 1051 215992 2.00016728 978.00016728 9 64 64 576 36864
746	9906432 54272 1052 220718 2.00016728 998.0003524 1996 64 78 153336 11789800
747	9960704 54272 1052 220718 2.00016728 998.0003524 1996 64 78 153336 11789800
748	10014976 14092 1062 220650 2.00016728 998.00028072 514 64 74 37866 2791204
749	10029068 14092 1062 220650 2.00016728 998.00028072 514 64 74 37866 2791204
750	10043160 27156 1062 220650 2.00016728 998.00028072 1028 0 1 514 514
751	10070316 14092 1062 220650 2.00016728 998.00028072 514 64 74 37866 2791204
752	10084408 14092 1062 220650 2.00016728 998.00028072 514 64 74 37866 2791204
753	10098500 27156 1062 220650 2.00016728 998.00028072 1028 0 1 514 514
754	10125656 14092 1062 220650 2.00016728 998.00028072 514 64 74 37866 2791204
755	10139748 13578 1062 220650 2.00016728 998.00028072 514 0 0 0 0
756	10153326 40734 1062 220650 2.00016728 998.00028072 1542 0 0 0 0
757	10194060 14092 1062 220650 2.00016728 998.00028072 514 64 74 37866 2791204
758	10208152 14092 1062 220650 2.00016728 998.00028072 514 64 74 37866 2791204
759	10222244 245 1063 216004 2.00016728 978.00016728 9 64 64 576 36864
760	10222489 245 1063 216004 2.00016728 978.00016728 9 64 64 576 36864
761	10222734 472 1063 216004 2.00016728 978.00016728 18 0 1 9 9
762	10223206 245 1063 216004 2.00016728 978.00016728 9 64 64 576 36864
763	10223451 245 1063 216004 2.00016728 978.00016728 9 64 64 576 36864
764	10223696 472 1063 216004 2.00016728 978.00016728 18 0 1 9 9
765	10224168 245 1063 216004 2.00016728 978.00016728 9 64 64 576 36864
766	10224413 236 1063 216004 2.00016728 978.00016728 9 0 0 0 0
767	10224649 708 1063 216004 2.00016728 978.00016728 27 0 0 0 0
768	10225357 245 1063 216004 2.00016728 978.00016728 9 64 64 576 36864
769	10225602 245 1063 216004 2.00016728 978.00016728 9 64 64 576 36864
770	10225847 245 1064 216005 2.00016728 978.00016728 9 64 64 576 36864
771	10226092 245 1064 216005 2.00016728 978.00016728 9 64 64 576 36864
772	10226337 472 1064 216005 2.00016728 978.00016728 18 0 1 9 9
773	10226809 245 1064 216005 2.00016728 978.00016728 9 64 64 576 36864
774	10227054 245 1064 216005 2.00016728 978.00016728 9 64 64 576 36864
775	10227299 472 1064 216005 2.00016728 978.00016728 18 0 1 9 9
776	10227771 245 1064 216005 2.00016728 978.00016728 9 64 64 576 36864
777	10228016 236 1064 216005 2.00016728 978.00016728 9 0 0 0 0
778	10228252 708 1064 216005 2.00016728 978.00016728 27 0 0 0 0
779	10228960 245 1064 216005 2.00016728 978.00016728 9 64 64 576 36864
780	10229205 245 1064 216005 2.00016728 978.00016728 9 64 64 576 36864
781	10229450 245 1065 216006 2.00016728 978.00016728 9 64 64 576 36864
782	10229695 245 1065 216006 2.00016728 978.00016728 9 64 64 576 36864
783	10229940 472 1065 216006 2.00016728 978.00016728 18 0 1 9 9
784	10230412 245 1065 216006 2.00016728 978.00016728 9 64 64 576 36864
785	10230657 245 1065 216006 2.00016728 978.00016728 9 64 64 576 36864
786	10230902 472 1065 216006 2.00016728 978.00016728 18 0 1 9 9
787	10231374 245 1065 216006 2.00016728 978.00016728 9 64 64 576 36864
788	10231619 236 1065 216006 2.00016728 978.00016728 9 0 0 0 0
789	10231855 708 1065 216006 2.00016728 978.00016728 27 0 0 0 0
790	10232563 245 1065 216006 2.00016728 978.00016728 9 64 64 576 36864
791	10232808 245 1065 216006 2.00016728 978.00016728 9 64 64 576 36864
792	10233053 245 1066 216007 2.00016728 978.00016728 9 64 64 576 36864
793	10233298 245 1066 216007 2.00016728 978.00016728 9 64 64 576 36864
794	10233543 472 1066 216007 2.00016728 978.00016728 18 0 1 9 9
795	10234015 245 1066 216007 2.00016728 978.00016728 9 64 64 576 36864
796	10234260 245 1066 216007 2.00016728 978.00016728 9 64 64 576 36864
797	10234505 472 1066 216007 2.00016728 978.00016728 18 0 1 9 9
798	10234977 245 1066 216007 2.00016728 978.00016728 9 64 64 576 36864
799	10235222 236 1066 216007 2.00016728 978.00016728 9 0 0 0 0
800	10235458 708 1066 216007 2.00016728 978.00016728 27 0 0 0 0
801	10236166 245 1066 216007 2.00016728 978.00016728 9 64 64 576 36864
802	10236411 245 1066 216007 2.00016728 978.00016728 9 64 64 576 36864
803	10236656 14092 1067 220651 2.00016728 998.00028072 514 64 74 37866 2791204
804	10250748 14092 1067 220651 2.00016728 998.00028072 514 64 74 37866 2791204
805	10264840 27156 1067 220651 2.00016728 998.00028072 1028 0 1 514 514
806	10291996 14092 1067 220651 2.00016728 998.00028072 514 64 74 37866 2791204
807	10306088 14092 1067 220651 2.00016728 998.00028072 514 64 74 37866 2791204
808	10320180 27156 1067 220651 2.00016728 998.00028072 1028 0 1 514 514
809	10347336 14092 1067 220651 2.00016728 998.00028072 514 64 74 37866 2791204
810	10361428 13578 1067 220651 2.00016728 998.00028072 514 0 0 0 0
811	10375006 40734 1067 220651 2.00016728 998.00028072 1542 0 0 0 0
812	10415740 14092 1067 220651 2.00016728 998.00028072 514 64 74 37866 2791204
813	10429832 14092 1067 220651 2.00016728 998.00028072 514 64 74 37866 2791204
814	10443924 14092 1068 220652 2.00016728 998.00028072 514 64 74 37866 2791204
815	10458016 14092 1068 220652 2.00016728 998.00028072 514 64 74 37866 2791204
816	10472108 27156 1068 220652 2.00016728 998.00028072 1028 0 1 514 514
817	10499264 14092 1068 220652 2.00016728 998.00028072 514 64 74 37866 2791204
818	10513356 14092 1068 220652 2.00016728 998.00028072 514 64 74 37866 2791204
819	10527448 27156 1068 220652 2.00016728 998.00028072 1028 0 1 514 514
820	10554604 14092 1068 220652 2.00016728 998.00028072 514 64 74 37866 2791204
821	10568696 13578 1068 220652 2.00016728 998.00028072 514 0 0 0 0
822	10582274 40734 1068 220652 2.00016728 998.00028072 1542 0 0 0 0
823	10623008 14092 1068 220652 2.00016728 998.00028072 514 64 74 37866 2791204
824	10637100 14092 1068 220652 2.00016728 998.00028072 514 64 74 37866 2791204
825	10651192 245 1069 216010 2.00016728 978.00016728 9 64 64 576 36864
826	10651437 245 1069 216010 2.00016728 978.00016728 9 64 64 576 36864
827	10651682 472 1069 216010 2.00016728 978.00016728 18 0 1 9 9
828	10652154 245 1069 216010 2.00016728 978.00016728 9 64 64 576 36864
829	10652399 245 1069 216010 2.00016728 978.00016728 9 64 64 576 36864
830	10652644 472 1069 216010 2.00016728 978.00016728 18 0 1 9 9
831	10653116 245 1069 216010 2.00016728 978.00016728 9 64 64 576 36864
832	10653361 236 1069 216010 2.00016728 978.00016728 9 0 0 0 0
833	10653597 708 1069 216010 2.00016728 978.00016728 27 0 0 0 0
834	10654305 245 1069 216010 2.00016728 978.00016728 9 64 64 576 36864
835	10654550 245 1069 216010 2.00016728 978.00016728 9 64 64 576 36864
836	10654795 14329 1070 220653 2.00016728 998.00028072 523 64 74 38442 2828068
837	10669124 14329 1070 220653 2.00016728 998.00028072 523 64 74 38442 2828068
838	10683453 27612 1070 220653 2.00016728 998.00028072 1046 0 1 523 523
839	10711065 14329 1070 220653 2.00016728 998.00028072 523 64 74 38442 2828068
840	10725394 14329 1070 220653 2.00016728 998.00028072 523 64 74 38442 2828068
841	10739723 27612 1070 220653 2.00016728 998.00028072 1046 0 1 523 523
842	10767335 14329 1070 220653 2.00016728 998.00028072 523 64 74 38442 2828068
843	10781664 13806 1070 220653 2.00016728 998.00028072 523 0 0 0 0
844	10795470 41418 1070 220653 2.00016728 998.00028072 1569 0 0 0 0
845	10836888 14329 1070 220653 2.00016728 998.00028072 523 64 74 38442 2828068
846	10851217 14329 1070 220653 2.00016728 998.00028072 523 64 74 38442 2828068
847	10865546 14092 1080 220663 2.00017304 998.00028728 514 64 74 37866 2791204
848	10879638 245 1081 216022 2.00017304 978.00017304 9 64 64 576 36864
849	10879883 245 1082 216023 2.00017304 978.00017304 9 64 64 576 36864
850	10880128 245 1083 216024 2.00017304 978.00017304 9 64 64 576 36864
851	10880373 245 1084 216025 2.00017304 978.00017304 9 64 64 576 36864
852	10880618 14092 1085 220664 2.00017304 998.00028728 514 64 74 37866 2791204
853	10894710 14092 1086 220665 2.00017304 998.00028728 514 64 74 37866 2791204
854	10908802 245 1087 216028 2.00017304 978.00017304 9 64 64 576 36864
855	10909047 14338 1088 220666 2.00017304 998.00028728 523 64 74 38442 2828068
856	10923385 14092 1098 220684 2.00022304 998.00033728 514 64 74 37866 2791204
857	10937477 14092 1098 220684 2.00022304 998.00033728 514 64 74 37866 2791204
858	10951569 245 1099 216040 2.00022304 978.00022304 9 64 64 576 36864
859	10951814 245 1099 216040 2.00022304 978.00022304 9 64 64 576 36864
860	10952059 245 1100 216041 2.00022304 978.00022304 9 64 64 576 36864
861	10952304 245 1100 216041 2.00022304 978.00022304 9 64 64 576 36864
862	10952549 245 1101 216042 2.00022304 978.00022304 9 64 64 576 36864
863	10952794 245 1101 216042 2.00022304 978.00022304 9 64 64 576 36864
864	10953039 245 1102 216043 2.00022304 978.00022304 9 64 64 576 36864
865	10953284 245 1102 216043 2.00022304 978.00022304 9 64 64 576 36864
866	10953529 14092 1103 220685 2.00022304 998.00033728 514 64 74 37866 2791204
867	10967621 14092 1103 220685 2.00022304 998.00033728 514 64 74 37866 2791204
868	10981713 14092 1104 220686 2.00022304 998.00033728 514 64 74 37866 2791204
869	10995805 14092 1104 220686 2.00022304 998.00033728 514 64 74 37866 2791204
870	11009897 245 1105 216046 2.00022304 978.00022304 9 64 64 576 36864
871	11010142 245 1105 216046 2.00022304 978.00022304 9 64 64 576 36864
872	11010387 14338 1106 220687 2.00022304 998.00033728 523 64 74 38442 2828068
873	11024725 14338 1106 220687 2.00022304 998.00033728 523 64 74 38442 2828068
874	11039063 14092 1107 220688 2.00022304 998.00033728 514 46 56 28614 1594564
875	11053155 245 1108 216049 2.00022304 978.00022304 9 46 46 414 19044
876	11053400 245 1109 216050 2.00022304 978.00022304 9 46 46 414 19044
877	11053645 245 1110 216051 2.00022304 978.00022304 9 46 46 414 19044
878	11053890 245 1111 216052 2.00022304 978.00022304 9 46 46 414 19044
879	11054135 14092 1112 220689 2.00022304 998.00033728 514 46 56 28614 1594564
880	11068227 14092 1113 220690 2.00022304 998.00033728 514 46 56 28614 1594564
881	11082319 245 1114 216055 2.00022304 978.00022304 9 46 46 414 19044
882	11082564 14338 1115 220691 2.00022304 998.00033728 523 46 56 29028 1613608
883	11096902 13665 1252 220547 2.0003368 998.00011376 499 40 40 19960 798400
884	11110567 14056 1252 220547 2.0003368 998.00011376 499 1 499 124750 41541750
885	11124623 13665 1260 220555 2.0003368 998.00011376 499 32 32 15968 510976
886	11138288 193500 1260 220845 0.1 1000 10000 0 2560 1277440 3270246400
887	11331788 17648 1260 220555 2.0003368 998.00011376 499 0.00011376 0.0003368 0.058773599999999 7.3621635839999e-006
888	11349436 14054 1260 220555 2.0003368 998.00011376 499 0 498 124251 41292749
889	11363490 14898 1277 220572 2.00039216 998.00016912 549 56 60 32836 1964336
890	11378388 27444 1281 220577 2.00039216 998.00016912 1002 56 60 60104 3605344
891	11405832 13722 1284 220579 2.00039216 998.00016912 501 56 60 30052 1802672
896	11419554 361 3881 31145 16 136.500168 15 40 218 946 89284
897	11419915 361 3881 31145 16 136.500168 15 40 218 946 89284
898	11420276 690 3881 31145 16 136.500168 30 0 1 15 15
899	11420966 361 3881 31145 16 136.500168 15 40 218 946 89284
900	11421327 345 3881 31145 16 136.500168 15 0 0 0 0
901	11421672 361 3881 31145 16 136.500168 15 47 225 1051 103263
902	11422033 374 3928 31152 16.00005408 136.50022176 15 47 225 1051 103263
903	11422407 374 3928 31152 16.00005408 136.50022176 15 40 218 946 89284
904	11422781 388 3932 31151 16.00005408 136.500218 16 40 353 1117 167633
905	11423169 388 3932 31151 16.00005408 136.500218 16 40 353 1117 167633
906	11423557 742 3932 31151 16.00005408 136.500218 32 0 1 16 16
907	11424299 388 3932 31151 16.00005408 136.500218 16 40 353 1117 167633
908	11424687 379 3932 31151 16.00005408 136.500218 16 0 3.76e-006 3.76e-006 1.41376e-011
909	11425066 388 3932 31151 16.00005408 136.500218 16 47 360 1229 184055
910	11425454 399 3988 31156 16.00010784 136.50027176 16 47 360 1229 184055
911	11425853 399 3988 31156 16.00010784 136.50027176 16 40 353 1117 167633
950	11426252 315 4301 31193 17 137.500168 13 40 179 870 79846
951	11426567 315 4301 31193 17 137.500168 13 40 179 870 79846
952	11426882 600 4301 31193 17 137.500168 26 0 1 13 13
953	11427482 315 4301 31193 17 137.500168 13 40 179 870 79846
954	11427797 300 4301 31193 17 137.500168 13 0 0 0 0
955	11428097 315 4301 31193 17 137.500168 13 47 186 961 92663
956	11428412 328 4303 31200 17.00005408 137.50022176 13 47 186 961 92663
957	11428740 328 4303 31200 17.00005408 137.50022176 13 40 179 870 79846
958	11429068 40775 4307 220583 17.00005408 998.00016912 1487 40 447 89418 5530668
959	11469843 40775 4307 220583 17.00005408 998.00016912 1487 40 447 89418 5530668
960	11510618 78574 4307 220596 17.00005408 998.00017984 2974 0 2 2469 3451
961	11589192 40775 4307 220596 17.00005408 998.00017984 1487 40 447 89418 5530668
962	11629967 47642 4307 220596 17.00005408 998.00017984 1487 0 1.072e-005 0.00789904 7.0545305599999e-008
963	11677609 40775 4307 220596 17.00005408 998.00017984 1487 47 454 99827 6855383
964	11718384 40303 4309 220629 17.00010784 998.0002352 1487 47 454 99827 6855383
965	11758687 40303 4309 220629 17.00010784 998.0002352 1487 40 447 89418 5530668
1004	11798990 275 4525 31588 18 138.500168 11 40 554 1029 330511
1005	11799265 275 4525 31588 18 138.500168 11 40 554 1029 330511
1006	11799540 526 4525 31588 18 138.500168 22 0 1 11 11
1007	11800066 275 4525 31588 18 138.500168 11 40 554 1029 330511
1008	11800341 270 4525 31588 18 138.500168 11 0 3.2e-007 3.2e-007 1.024e-013
1009	11800611 275 4525 31588 18 138.500168 11 47 561 1106 345456
1010	11800886 288 4572 31595 18.00005408 138.50022176 11 47 561 1106 345456
1011	11801174 288 4572 31595 18.00005408 138.50022176 11 40 554 1029 330511
1012	11801462 303 4576 31594 18.00005408 138.500218 12 40 550 1061 327359
1013	11801765 303 4576 31594 18.00005408 138.500218 12 40 550 1061 327359
1014	11802068 580 4576 31594 18.00005408 138.500218 24 0 1 12 12
1015	11802648 303 4576 31594 18.00005408 138.500218 12 40 550 1061 327359
1016	11802951 298 4576 31594 18.00005408 138.500218 12 0 3.76e-006 3.76e-006 1.41376e-011
1017	11803249 303 4576 31594 18.00005408 138.500218 12 47 557 1145 342801
1018	11803552 314 4632 31599 18.00010784 138.50027176 12 47 557 1145 342801
1019	11803866 314 4632 31599 18.00010784 138.50027176 12 40 550 1061 327359
1022	11804180 484 4757 219791 18.00027984 994.00027984 17 28 28 476 13328
1023	11804664 255 4829 219863 18.00039136 994.00039136 9 28 28 252 7056
1024	11804919 255 4830 219864 18.00039136 994.00039136 9 28 28 252 7056
1025	11805174 255 4831 219865 18.00039136 994.00039136 9 46 46 414 19044
1026	11805429 255 4831 219865 18.00039136 994.00039136 9 64 64 576 36864
1027	11805684 492 4831 219865 18.00039136 994.00039136 18 0 1 9 9
1028	11806176 255 4831 219865 18.00039136 994.00039136 9 64 64 576 36864
1029	11806431 255 4831 219865 18.00039136 994.00039136 9 64 64 576 36864
1030	11806686 492 4831 219865 18.00039136 994.00039136 18 0 1 9 9
1031	11807178 255 4831 219865 18.00039136 994.00039136 9 64 64 576 36864
1032	11807433 246 4831 219865 18.00039136 994.00039136 9 0 0 0 0
1033	11807679 738 4831 219865 18.00039136 994.00039136 27 0 0 0 0
1034	11808417 255 4831 219865 18.00039136 994.00039136 9 64 64 576 36864
1035	11808672 255 4831 219865 18.00039136 994.00039136 9 64 64 576 36864
1036	11808927 255 4832 219866 18.00039712 994.00039712 9 64 64 576 36864
1037	11809182 255 4835 219869 18.00044712 994.00044712 9 64 64 576 36864
1038	11809437 255 4835 219869 18.00044712 994.00044712 9 64 64 576 36864
1039	11809692 41433 4880 220738 18.00061664 998.00040928 1473 40 40 58920 2356800
1040	11851125 43272 4880 220738 18.00061664 998.00040928 1473 1 1473 1085601 1066422049
1041	11894397 41433 4881 220739 18.00061664 998.00040928 1473 32 32 47136 1508352
1042	11935830 203056 4881 220729 0.1 998 9980 0 7680 3763200 28901376000
1043	12138886 52743 4881 220739 18.00061664 998.00040928 1473 0.0003936 0.00063232 0.60269615999999 0.0002491101906688
1044	12191629 42624 4881 220739 18.00061664 998.00040928 1473 8 498 372669 123877827
1077	12234253 229 27587 215399 122.00022416 976.00022416 8 28 28 224 6272
1078	12234482 229 27588 215400 122.00022416 976.00022416 8 28 28 224 6272
1079	12234711 229 27589 215401 122.00022416 976.00022416 8 28 28 224 6272
1080	12234940 229 27694 215506 122.00033568 976.00033568 8 28 28 224 6272
1081	12235169 229 27696 215508 122.00033568 976.00033568 8 28 28 224 6272
1082	12235398 229 27698 215510 122.00033568 976.00033568 8 28 28 224 6272
1083	12235627 229 27700 215512 122.00033568 976.00033568 8 28 28 224 6272
1084	12235856 206903 220845 220845 0.1 1000 10000 0 0 0 0
1085	12442759 206903 220845 220845 0.1 1000 10000 0 0 0 0
1086	12649662 206903 220845 220845 0.1 1000 10000 0 0 0 0
1087	12856565 206903 220845 220845 0.1 1000 10000 0 0 0 0
1088	13063468 176160 220845 220845 0.1 852.2 8522 0 0 0 0
vector 1089 CampusNetwork.HA41.app[0] throughput:vector ETV
attr source throughput(packetReceived)
attr title "throughput, vector"
attr unit bps
vector 1090 CampusNetwork.HA42.app[0] throughput:vector ETV
attr source throughput(packetReceived)
attr title "throughput, vector"
attr unit bps
vector 1091 CampusNetwork.HA51.app[0] throughput:vector ETV
attr source throughput(packetReceived)
attr title "throughput, vector"
attr unit bps
vector 1092 CampusNetwork.HA52.app[0] throughput:vector ETV
attr source throughput(packetReceived)
attr title "throughput, vector"
attr unit bps
vector 1093 CampusNetwork.HB11.app[0] throughput:vector ETV
attr source throughput(packetReceived)
attr title "throughput, vector"
attr unit bps
vector 1094 CampusNetwork.HB12.app[0] throughput:vector ETV
attr source throughput(packetReceived)
attr title "throughput, vector"
attr unit bps
vector 1095 CampusNetwork.HB21.app[0] throughput:vector ETV
attr source throughput(packetReceived)
attr title "throughput, vector"
attr unit bps
vector 1096 CampusNetwork.HB22.app[0] throughput:vector ETV
attr source throughput(packetReceived)
attr title "throughput, vector"
attr unit bps
vector 1097 CampusNetwork.HB31.app[0] throughput:vector ETV
attr source throughput(packetReceived)
attr title "throughput, vector"
attr unit bps
vector 1098 CampusNetwork.HB32.app[0] throughput:vector ETV
attr source throughput(packetReceived)
attr title "throughput, vector"
attr unit bps
vector 1099 CampusNetwork.HC11.app[0] throughput:vector ETV
attr source throughput(packetReceived)
attr title "throughput, vector"
attr unit bps
1042	13241267 420 220845 220845 998.1 1000 20 0 7680 7680 58982400
1088	13241687 30743 220845 220845 852.3 1000 1478 0 0 0 0
1089	13272430 206903 220845 220845 0.1 1000 10000 0 0 0 0
1090	13479333 206903 220845 220845 0.1 1000 10000 0 0 0 0
1091	13686236 206903 220845 220845 0.1 1000 10000 0 0 0 0
1092	13893139 206903 220845 220845 0.1 1000 10000 0 0 0 0
1093	14100042 206903 220845 220845 0.1 1000 10000 0 0 0 0
1094	14306945 206903 220845 220845 0.1 1000 10000 0 0 0 0
1095	14513848 206903 220845 220845 0.1 1000 10000 0 0 0 0
1096	14720751 206903 220845 220845 0.1 1000 10000 0 0 0 0
1097	14927654 206903 220845 220845 0.1 1000 10000 0 0 0 0
1098	15134557 206903 220845 220845 0.1 1000 10000 0 0 0 0
1099	15341460 206903 220845 220845 0.1 1000 10000 0 0 0 0

